
---------- Begin Simulation Statistics ----------
final_tick                               2542163017500                       # Number of ticks from beginning of simulation (restored from checkpoints and never reset)
host_inst_rate                                 224033                       # Simulator instruction rate (inst/s)
host_mem_usage                                 740740                       # Number of bytes of host memory used
host_op_rate                                   224031                       # Simulator op (including micro ops) rate (op/s)
host_seconds                                    18.73                       # Real time elapsed on the host
host_tick_rate                              648852421                       # Simulator tick rate (ticks/s)
sim_freq                                 1000000000000                       # Frequency of simulated ticks
sim_insts                                     4196159                       # Number of instructions simulated
sim_ops                                       4196159                       # Number of ops (including micro ops) simulated
sim_seconds                                  0.012153                       # Number of seconds simulated
sim_ticks                                 12153172500                       # Number of ticks simulated
system.cpu.branchPred.BTBCorrect                    0                       # Number of correct BTB predictions (this stat may not work properly.
system.cpu.branchPred.BTBHitPct             50.412789                       # BTB Hit Percentage
system.cpu.branchPred.BTBHits                  371755                       # Number of BTB hits
system.cpu.branchPred.BTBLookups               737422                       # Number of BTB lookups
system.cpu.branchPred.RASInCorrect               2659                       # Number of incorrect RAS predictions.
system.cpu.branchPred.condIncorrect            111313                       # Number of conditional branches incorrect
system.cpu.branchPred.condPredicted            941945                       # Number of conditional branches predicted
system.cpu.branchPred.indirectHits              30777                       # Number of indirect target hits.
system.cpu.branchPred.indirectLookups          208432                       # Number of indirect predictor lookups.
system.cpu.branchPred.indirectMisses           177655                       # Number of indirect misses.
system.cpu.branchPred.lookups                 1143722                       # Number of BP lookups
system.cpu.branchPred.usedRAS                   70267                       # Number of times the RAS was used to get a target.
system.cpu.branchPredindirectMispredicted        29481                       # Number of mispredicted indirect branches.
system.cpu.committedInsts                     4196159                       # Number of instructions committed
system.cpu.committedOps                       4196159                       # Number of ops (including micro ops) committed
system.cpu.cpi                               5.789234                       # CPI: cycles per instruction
system.cpu.discardedOps                        302000                       # Number of ops (including micro ops) which were discarded before commit
system.cpu.dtb.data_accesses                   616441                       # DTB accesses
system.cpu.dtb.data_acv                           129                       # DTB access violations
system.cpu.dtb.data_hits                      1475828                       # DTB hits
system.cpu.dtb.data_misses                       8308                       # DTB misses
system.cpu.dtb.fetch_accesses                       0                       # ITB accesses
system.cpu.dtb.fetch_acv                            0                       # ITB acv
system.cpu.dtb.fetch_hits                           0                       # ITB hits
system.cpu.dtb.fetch_misses                         0                       # ITB misses
system.cpu.dtb.read_accesses                   414918                       # DTB read accesses
system.cpu.dtb.read_acv                            43                       # DTB read access violations
system.cpu.dtb.read_hits                       872133                       # DTB read hits
system.cpu.dtb.read_misses                       7443                       # DTB read misses
system.cpu.dtb.write_accesses                  201523                       # DTB write accesses
system.cpu.dtb.write_acv                           86                       # DTB write access violations
system.cpu.dtb.write_hits                      603695                       # DTB write hits
system.cpu.dtb.write_misses                       865                       # DTB write misses
system.cpu.fetch2.amo_instructions                  0                       # Number of memory atomic instructions successfully decoded
system.cpu.fetch2.fp_instructions               18250                       # Number of floating point instructions successfully decoded
system.cpu.fetch2.int_instructions            3660644                       # Number of integer instructions successfully decoded
system.cpu.fetch2.load_instructions           1148826                       # Number of memory load instructions successfully decoded
system.cpu.fetch2.store_instructions           682362                       # Number of memory store instructions successfully decoded
system.cpu.fetch2.vec_instructions                  0                       # Number of SIMD instructions successfully decoded
system.cpu.idleCycles                        17095665                       # Total number of cycles that the object has spent stopped
system.cpu.ipc                               0.172734                       # IPC: instructions per cycle
system.cpu.itb.data_accesses                        0                       # DTB accesses
system.cpu.itb.data_acv                             0                       # DTB access violations
system.cpu.itb.data_hits                            0                       # DTB hits
system.cpu.itb.data_misses                          0                       # DTB misses
system.cpu.itb.fetch_accesses                  982269                       # ITB accesses
system.cpu.itb.fetch_acv                          392                       # ITB acv
system.cpu.itb.fetch_hits                      976339                       # ITB hits
system.cpu.itb.fetch_misses                      5930                       # ITB misses
system.cpu.itb.read_accesses                        0                       # DTB read accesses
system.cpu.itb.read_acv                             0                       # DTB read access violations
system.cpu.itb.read_hits                            0                       # DTB read hits
system.cpu.itb.read_misses                          0                       # DTB read misses
system.cpu.itb.write_accesses                       0                       # DTB write accesses
system.cpu.itb.write_acv                            0                       # DTB write access violations
system.cpu.itb.write_hits                           0                       # DTB write hits
system.cpu.itb.write_misses                         0                       # DTB write misses
system.cpu.kern.callpal::swpctx                   574      9.41%      9.41% # number of callpals executed
system.cpu.kern.callpal::tbi                       25      0.41%      9.82% # number of callpals executed
system.cpu.kern.callpal::swpipl                  4235     69.41%     79.23% # number of callpals executed
system.cpu.kern.callpal::rdps                      50      0.82%     80.05% # number of callpals executed
system.cpu.kern.callpal::wrusp                      4      0.07%     80.12% # number of callpals executed
system.cpu.kern.callpal::rdusp                      3      0.05%     80.17% # number of callpals executed
system.cpu.kern.callpal::rti                      897     14.70%     94.87% # number of callpals executed
system.cpu.kern.callpal::callsys                  235      3.85%     98.72% # number of callpals executed
system.cpu.kern.callpal::imb                       78      1.28%    100.00% # number of callpals executed
system.cpu.kern.callpal::total                   6101                       # number of callpals executed
system.cpu.kern.inst.arm                            0                       # number of arm instructions executed
system.cpu.kern.inst.hwrei                      14445                       # number of hwrei instructions executed
system.cpu.kern.inst.quiesce                        9                       # number of quiesce instructions executed
system.cpu.kern.ipl_count::0                     2438     47.34%     47.34% # number of times we switched to this ipl
system.cpu.kern.ipl_count::21                       5      0.10%     47.44% # number of times we switched to this ipl
system.cpu.kern.ipl_count::22                      13      0.25%     47.69% # number of times we switched to this ipl
system.cpu.kern.ipl_count::31                    2694     52.31%    100.00% # number of times we switched to this ipl
system.cpu.kern.ipl_count::total                 5150                       # number of times we switched to this ipl
system.cpu.kern.ipl_good::0                      2425     49.82%     49.82% # number of times we switched to this ipl from a different ipl
system.cpu.kern.ipl_good::21                        5      0.10%     49.92% # number of times we switched to this ipl from a different ipl
system.cpu.kern.ipl_good::22                       13      0.27%     50.18% # number of times we switched to this ipl from a different ipl
system.cpu.kern.ipl_good::31                     2425     49.82%    100.00% # number of times we switched to this ipl from a different ipl
system.cpu.kern.ipl_good::total                  4868                       # number of times we switched to this ipl from a different ipl
system.cpu.kern.ipl_ticks::0              11194630500     92.08%     92.08% # number of cycles we spent at this ipl
system.cpu.kern.ipl_ticks::21                 8879000      0.07%     92.15% # number of cycles we spent at this ipl
system.cpu.kern.ipl_ticks::22                19534000      0.16%     92.31% # number of cycles we spent at this ipl
system.cpu.kern.ipl_ticks::31               934429500      7.69%    100.00% # number of cycles we spent at this ipl
system.cpu.kern.ipl_ticks::total          12157473000                       # number of cycles we spent at this ipl
system.cpu.kern.ipl_used::0                  0.994668                       # fraction of swpipl calls that actually changed the ipl
system.cpu.kern.ipl_used::21                        1                       # fraction of swpipl calls that actually changed the ipl
system.cpu.kern.ipl_used::22                        1                       # fraction of swpipl calls that actually changed the ipl
system.cpu.kern.ipl_used::31                 0.900148                       # fraction of swpipl calls that actually changed the ipl
system.cpu.kern.ipl_used::total              0.945243                       # fraction of swpipl calls that actually changed the ipl
system.cpu.kern.mode_good::kernel                 869                      
system.cpu.kern.mode_good::user                   869                      
system.cpu.kern.mode_good::idle                     0                      
system.cpu.kern.mode_switch::kernel              1471                       # number of protection mode switches
system.cpu.kern.mode_switch::user                 869                       # number of protection mode switches
system.cpu.kern.mode_switch::idle                   0                       # number of protection mode switches
system.cpu.kern.mode_switch_good::kernel     0.590755                       # fraction of useful protection mode switches
system.cpu.kern.mode_switch_good::user              1                       # fraction of useful protection mode switches
system.cpu.kern.mode_switch_good::idle            nan                       # fraction of useful protection mode switches
system.cpu.kern.mode_switch_good::total      0.742735                       # fraction of useful protection mode switches
system.cpu.kern.mode_ticks::kernel         8200158500     67.45%     67.45% # number of ticks spent at the given mode
system.cpu.kern.mode_ticks::user           3957314500     32.55%    100.00% # number of ticks spent at the given mode
system.cpu.kern.mode_ticks::idle                    0      0.00%    100.00% # number of ticks spent at the given mode
system.cpu.kern.swap_context                      574                       # number of times the context was actually changed
system.cpu.numCycles                         24292545                       # number of cpu cycles simulated
system.cpu.numFetchSuspends                         9                       # Number of times Execute suspended instruction fetching
system.cpu.numWorkItemsCompleted                    0                       # number of work items this cpu completed
system.cpu.numWorkItemsStarted                      0                       # number of work items this cpu started
system.cpu.op_class_0::No_OpClass               85395      2.04%      2.04% # Class of committed instruction
system.cpu.op_class_0::IntAlu                 2541599     60.57%     62.60% # Class of committed instruction
system.cpu.op_class_0::IntMult                   3684      0.09%     62.69% # Class of committed instruction
system.cpu.op_class_0::IntDiv                       0      0.00%     62.69% # Class of committed instruction
system.cpu.op_class_0::FloatAdd                  8286      0.20%     62.89% # Class of committed instruction
system.cpu.op_class_0::FloatCmp                     0      0.00%     62.89% # Class of committed instruction
system.cpu.op_class_0::FloatCvt                     0      0.00%     62.89% # Class of committed instruction
system.cpu.op_class_0::FloatMult                    0      0.00%     62.89% # Class of committed instruction
system.cpu.op_class_0::FloatMultAcc                 0      0.00%     62.89% # Class of committed instruction
system.cpu.op_class_0::FloatDiv                  1593      0.04%     62.93% # Class of committed instruction
system.cpu.op_class_0::FloatMisc                    0      0.00%     62.93% # Class of committed instruction
system.cpu.op_class_0::FloatSqrt                    0      0.00%     62.93% # Class of committed instruction
system.cpu.op_class_0::SimdAdd                      0      0.00%     62.93% # Class of committed instruction
system.cpu.op_class_0::SimdAddAcc                   0      0.00%     62.93% # Class of committed instruction
system.cpu.op_class_0::SimdAlu                      0      0.00%     62.93% # Class of committed instruction
system.cpu.op_class_0::SimdCmp                      0      0.00%     62.93% # Class of committed instruction
system.cpu.op_class_0::SimdCvt                      0      0.00%     62.93% # Class of committed instruction
system.cpu.op_class_0::SimdMisc                     0      0.00%     62.93% # Class of committed instruction
system.cpu.op_class_0::SimdMult                     0      0.00%     62.93% # Class of committed instruction
system.cpu.op_class_0::SimdMultAcc                  0      0.00%     62.93% # Class of committed instruction
system.cpu.op_class_0::SimdShift                    0      0.00%     62.93% # Class of committed instruction
system.cpu.op_class_0::SimdShiftAcc                 0      0.00%     62.93% # Class of committed instruction
system.cpu.op_class_0::SimdDiv                      0      0.00%     62.93% # Class of committed instruction
system.cpu.op_class_0::SimdSqrt                     0      0.00%     62.93% # Class of committed instruction
system.cpu.op_class_0::SimdFloatAdd                 0      0.00%     62.93% # Class of committed instruction
system.cpu.op_class_0::SimdFloatAlu                 0      0.00%     62.93% # Class of committed instruction
system.cpu.op_class_0::SimdFloatCmp                 0      0.00%     62.93% # Class of committed instruction
system.cpu.op_class_0::SimdFloatCvt                 0      0.00%     62.93% # Class of committed instruction
system.cpu.op_class_0::SimdFloatDiv                 0      0.00%     62.93% # Class of committed instruction
system.cpu.op_class_0::SimdFloatMisc                0      0.00%     62.93% # Class of committed instruction
system.cpu.op_class_0::SimdFloatMult                0      0.00%     62.93% # Class of committed instruction
system.cpu.op_class_0::SimdFloatMultAcc             0      0.00%     62.93% # Class of committed instruction
system.cpu.op_class_0::SimdFloatSqrt                0      0.00%     62.93% # Class of committed instruction
system.cpu.op_class_0::SimdReduceAdd                0      0.00%     62.93% # Class of committed instruction
system.cpu.op_class_0::SimdReduceAlu                0      0.00%     62.93% # Class of committed instruction
system.cpu.op_class_0::SimdReduceCmp                0      0.00%     62.93% # Class of committed instruction
system.cpu.op_class_0::SimdFloatReduceAdd            0      0.00%     62.93% # Class of committed instruction
system.cpu.op_class_0::SimdFloatReduceCmp            0      0.00%     62.93% # Class of committed instruction
system.cpu.op_class_0::SimdAes                      0      0.00%     62.93% # Class of committed instruction
system.cpu.op_class_0::SimdAesMix                   0      0.00%     62.93% # Class of committed instruction
system.cpu.op_class_0::SimdSha1Hash                 0      0.00%     62.93% # Class of committed instruction
system.cpu.op_class_0::SimdSha1Hash2                0      0.00%     62.93% # Class of committed instruction
system.cpu.op_class_0::SimdSha256Hash               0      0.00%     62.93% # Class of committed instruction
system.cpu.op_class_0::SimdSha256Hash2              0      0.00%     62.93% # Class of committed instruction
system.cpu.op_class_0::SimdShaSigma2                0      0.00%     62.93% # Class of committed instruction
system.cpu.op_class_0::SimdShaSigma3                0      0.00%     62.93% # Class of committed instruction
system.cpu.op_class_0::SimdPredAlu                  0      0.00%     62.93% # Class of committed instruction
system.cpu.op_class_0::MemRead                 839347     20.00%     82.93% # Class of committed instruction
system.cpu.op_class_0::MemWrite                592551     14.12%     97.05% # Class of committed instruction
system.cpu.op_class_0::FloatMemRead              9988      0.24%     97.29% # Class of committed instruction
system.cpu.op_class_0::FloatMemWrite             8788      0.21%     97.50% # Class of committed instruction
system.cpu.op_class_0::IprAccess               104928      2.50%    100.00% # Class of committed instruction
system.cpu.op_class_0::InstPrefetch                 0      0.00%    100.00% # Class of committed instruction
system.cpu.op_class_0::total                  4196159                       # Class of committed instruction
system.cpu.quiesceCycles                        13800                       # Total number of cycles that CPU has spent quiesced or waiting for an interrupt
system.cpu.tickCycles                         7196880                       # Number of cycles that the object actually ticked
system.disk0.dma_read_bytes                         0                       # Number of bytes transfered via DMA reads (not PRD).
system.disk0.dma_read_full_pages                    0                       # Number of full page size DMA reads (not PRD).
system.disk0.dma_read_txs                           0                       # Number of DMA read transactions (not PRD).
system.disk0.dma_write_bytes                    12288                       # Number of bytes transfered via DMA writes.
system.disk0.dma_write_full_pages                   0                       # Number of full page size DMA writes.
system.disk0.dma_write_txs                          3                       # Number of DMA write transactions.
system.disk2.dma_read_bytes                         0                       # Number of bytes transfered via DMA reads (not PRD).
system.disk2.dma_read_full_pages                    0                       # Number of full page size DMA reads (not PRD).
system.disk2.dma_read_txs                           0                       # Number of DMA read transactions (not PRD).
system.disk2.dma_write_bytes                        0                       # Number of bytes transfered via DMA writes.
system.disk2.dma_write_full_pages                   0                       # Number of full page size DMA writes.
system.disk2.dma_write_txs                          0                       # Number of DMA write transactions.
system.membus.snoop_filter.hit_multi_requests          435                       # Number of requests hitting in the snoop filter with multiple (>1) holders of the requested data.
system.membus.snoop_filter.hit_multi_snoops            0                       # Number of snoops hitting in the snoop filter with multiple (>1) holders of the requested data.
system.membus.snoop_filter.hit_single_requests       158407                       # Number of requests hitting in the snoop filter with a single holder of the requested data.
system.membus.snoop_filter.hit_single_snoops            0                       # Number of snoops hitting in the snoop filter with a single holder of the requested data.
system.membus.snoop_filter.tot_requests        318420                       # Total number of requests made to the snoop filter.
system.membus.snoop_filter.tot_snoops               0                       # Total number of snoops made to the snoop filter.
system.tsunami.ethernet.coalescedRxDesc           nan                       # average number of RxDesc's coalesced into each post
system.tsunami.ethernet.coalescedRxIdle           nan                       # average number of RxIdle's coalesced into each post
system.tsunami.ethernet.coalescedRxOk             nan                       # average number of RxOk's coalesced into each post
system.tsunami.ethernet.coalescedRxOrn            nan                       # average number of RxOrn's coalesced into each post
system.tsunami.ethernet.coalescedSwi              nan                       # average number of Swi's coalesced into each post
system.tsunami.ethernet.coalescedTotal            nan                       # average number of interrupts coalesced into each post
system.tsunami.ethernet.coalescedTxDesc           nan                       # average number of TxDesc's coalesced into each post
system.tsunami.ethernet.coalescedTxIdle           nan                       # average number of TxIdle's coalesced into each post
system.tsunami.ethernet.coalescedTxOk             nan                       # average number of TxOk's coalesced into each post
system.tsunami.ethernet.descDMAReads                0                       # Number of descriptors the device read w/ DMA
system.tsunami.ethernet.descDMAWrites               0                       # Number of descriptors the device wrote w/ DMA
system.tsunami.ethernet.descDmaReadBytes            0                       # number of descriptor bytes read w/ DMA
system.tsunami.ethernet.descDmaWriteBytes            0                       # number of descriptor bytes write w/ DMA
system.tsunami.ethernet.droppedPackets              0                       # number of packets dropped
system.tsunami.ethernet.postedInterrupts            0                       # number of posts to CPU
system.tsunami.ethernet.postedRxDesc                0                       # number of RxDesc interrupts posted to CPU
system.tsunami.ethernet.postedRxIdle                0                       # number of rxIdle interrupts posted to CPU
system.tsunami.ethernet.postedRxOk                  0                       # number of RxOk interrupts posted to CPU
system.tsunami.ethernet.postedRxOrn                 0                       # number of RxOrn posted to CPU
system.tsunami.ethernet.postedSwi                   0                       # number of software interrupts posted to CPU
system.tsunami.ethernet.postedTxDesc                0                       # number of TxDesc interrupts posted to CPU
system.tsunami.ethernet.postedTxIdle                0                       # number of TxIdle interrupts posted to CPU
system.tsunami.ethernet.postedTxOk                  0                       # number of TxOk interrupts posted to CPU
system.tsunami.ethernet.totalRxDesc                 0                       # total number of RxDesc written to ISR
system.tsunami.ethernet.totalRxIdle                 0                       # total number of RxIdle written to ISR
system.tsunami.ethernet.totalRxOk                   0                       # total number of RxOk written to ISR
system.tsunami.ethernet.totalRxOrn                  0                       # total number of RxOrn written to ISR
system.tsunami.ethernet.totalSwi                    0                       # total number of Swi written to ISR
system.tsunami.ethernet.totalTxDesc                 0                       # total number of TxDesc written to ISR
system.tsunami.ethernet.totalTxIdle                 0                       # total number of TxIdle written to ISR
system.tsunami.ethernet.totalTxOk                   0                       # total number of TxOk written to ISR
system.bridge.pwrStateResidencyTicks::UNDEFINED 2542163017500                       # Cumulative time (in ticks) in various power states
system.voltage_domain.voltage                       1                       # Voltage in Volts
system.iocache.pwrStateResidencyTicks::UNDEFINED 2542163017500                       # Cumulative time (in ticks) in various power states
system.iocache.demand_misses::.tsunami.ide          195                       # number of demand (read+write) misses
system.iocache.demand_misses::total               195                       # number of demand (read+write) misses
system.iocache.overall_misses::.tsunami.ide          195                       # number of overall misses
system.iocache.overall_misses::total              195                       # number of overall misses
system.iocache.demand_miss_latency::.tsunami.ide     22753455                       # number of demand (read+write) miss cycles
system.iocache.demand_miss_latency::total     22753455                       # number of demand (read+write) miss cycles
system.iocache.overall_miss_latency::.tsunami.ide     22753455                       # number of overall miss cycles
system.iocache.overall_miss_latency::total     22753455                       # number of overall miss cycles
system.iocache.demand_accesses::.tsunami.ide          195                       # number of demand (read+write) accesses
system.iocache.demand_accesses::total             195                       # number of demand (read+write) accesses
system.iocache.overall_accesses::.tsunami.ide          195                       # number of overall (read+write) accesses
system.iocache.overall_accesses::total            195                       # number of overall (read+write) accesses
system.iocache.demand_miss_rate::.tsunami.ide            1                       # miss rate for demand accesses
system.iocache.demand_miss_rate::total              1                       # miss rate for demand accesses
system.iocache.overall_miss_rate::.tsunami.ide            1                       # miss rate for overall accesses
system.iocache.overall_miss_rate::total             1                       # miss rate for overall accesses
system.iocache.demand_avg_miss_latency::.tsunami.ide 116684.384615                       # average overall miss latency
system.iocache.demand_avg_miss_latency::total 116684.384615                       # average overall miss latency
system.iocache.overall_avg_miss_latency::.tsunami.ide 116684.384615                       # average overall miss latency
system.iocache.overall_avg_miss_latency::total 116684.384615                       # average overall miss latency
system.iocache.blocked_cycles::no_mshrs             0                       # number of cycles access was blocked
system.iocache.blocked_cycles::no_targets            0                       # number of cycles access was blocked
system.iocache.blocked::no_mshrs                    0                       # number of cycles access was blocked
system.iocache.blocked::no_targets                  0                       # number of cycles access was blocked
system.iocache.avg_blocked_cycles::no_mshrs          nan                       # average number of cycles each access was blocked
system.iocache.avg_blocked_cycles::no_targets          nan                       # average number of cycles each access was blocked
system.iocache.writebacks::.writebacks            176                       # number of writebacks
system.iocache.writebacks::total                  176                       # number of writebacks
system.iocache.demand_mshr_misses::.tsunami.ide          195                       # number of demand (read+write) MSHR misses
system.iocache.demand_mshr_misses::total          195                       # number of demand (read+write) MSHR misses
system.iocache.overall_mshr_misses::.tsunami.ide          195                       # number of overall MSHR misses
system.iocache.overall_mshr_misses::total          195                       # number of overall MSHR misses
system.iocache.demand_mshr_miss_latency::.tsunami.ide     12992480                       # number of demand (read+write) MSHR miss cycles
system.iocache.demand_mshr_miss_latency::total     12992480                       # number of demand (read+write) MSHR miss cycles
system.iocache.overall_mshr_miss_latency::.tsunami.ide     12992480                       # number of overall MSHR miss cycles
system.iocache.overall_mshr_miss_latency::total     12992480                       # number of overall MSHR miss cycles
system.iocache.demand_mshr_miss_rate::.tsunami.ide            1                       # mshr miss rate for demand accesses
system.iocache.demand_mshr_miss_rate::total            1                       # mshr miss rate for demand accesses
system.iocache.overall_mshr_miss_rate::.tsunami.ide            1                       # mshr miss rate for overall accesses
system.iocache.overall_mshr_miss_rate::total            1                       # mshr miss rate for overall accesses
system.iocache.demand_avg_mshr_miss_latency::.tsunami.ide 66628.102564                       # average overall mshr miss latency
system.iocache.demand_avg_mshr_miss_latency::total 66628.102564                       # average overall mshr miss latency
system.iocache.overall_avg_mshr_miss_latency::.tsunami.ide 66628.102564                       # average overall mshr miss latency
system.iocache.overall_avg_mshr_miss_latency::total 66628.102564                       # average overall mshr miss latency
system.iocache.replacements                       179                       # number of replacements
system.iocache.ReadReq_misses::.tsunami.ide            3                       # number of ReadReq misses
system.iocache.ReadReq_misses::total                3                       # number of ReadReq misses
system.iocache.ReadReq_miss_latency::.tsunami.ide       349497                       # number of ReadReq miss cycles
system.iocache.ReadReq_miss_latency::total       349497                       # number of ReadReq miss cycles
system.iocache.ReadReq_accesses::.tsunami.ide            3                       # number of ReadReq accesses(hits+misses)
system.iocache.ReadReq_accesses::total              3                       # number of ReadReq accesses(hits+misses)
system.iocache.ReadReq_miss_rate::.tsunami.ide            1                       # miss rate for ReadReq accesses
system.iocache.ReadReq_miss_rate::total             1                       # miss rate for ReadReq accesses
system.iocache.ReadReq_avg_miss_latency::.tsunami.ide       116499                       # average ReadReq miss latency
system.iocache.ReadReq_avg_miss_latency::total       116499                       # average ReadReq miss latency
system.iocache.ReadReq_mshr_misses::.tsunami.ide            3                       # number of ReadReq MSHR misses
system.iocache.ReadReq_mshr_misses::total            3                       # number of ReadReq MSHR misses
system.iocache.ReadReq_mshr_miss_latency::.tsunami.ide       199497                       # number of ReadReq MSHR miss cycles
system.iocache.ReadReq_mshr_miss_latency::total       199497                       # number of ReadReq MSHR miss cycles
system.iocache.ReadReq_mshr_miss_rate::.tsunami.ide            1                       # mshr miss rate for ReadReq accesses
system.iocache.ReadReq_mshr_miss_rate::total            1                       # mshr miss rate for ReadReq accesses
system.iocache.ReadReq_avg_mshr_miss_latency::.tsunami.ide        66499                       # average ReadReq mshr miss latency
system.iocache.ReadReq_avg_mshr_miss_latency::total        66499                       # average ReadReq mshr miss latency
system.iocache.WriteLineReq_misses::.tsunami.ide          192                       # number of WriteLineReq misses
system.iocache.WriteLineReq_misses::total          192                       # number of WriteLineReq misses
system.iocache.WriteLineReq_miss_latency::.tsunami.ide     22403958                       # number of WriteLineReq miss cycles
system.iocache.WriteLineReq_miss_latency::total     22403958                       # number of WriteLineReq miss cycles
system.iocache.WriteLineReq_accesses::.tsunami.ide          192                       # number of WriteLineReq accesses(hits+misses)
system.iocache.WriteLineReq_accesses::total          192                       # number of WriteLineReq accesses(hits+misses)
system.iocache.WriteLineReq_miss_rate::.tsunami.ide            1                       # miss rate for WriteLineReq accesses
system.iocache.WriteLineReq_miss_rate::total            1                       # miss rate for WriteLineReq accesses
system.iocache.WriteLineReq_avg_miss_latency::.tsunami.ide 116687.281250                       # average WriteLineReq miss latency
system.iocache.WriteLineReq_avg_miss_latency::total 116687.281250                       # average WriteLineReq miss latency
system.iocache.WriteLineReq_mshr_misses::.tsunami.ide          192                       # number of WriteLineReq MSHR misses
system.iocache.WriteLineReq_mshr_misses::total          192                       # number of WriteLineReq MSHR misses
system.iocache.WriteLineReq_mshr_miss_latency::.tsunami.ide     12792983                       # number of WriteLineReq MSHR miss cycles
system.iocache.WriteLineReq_mshr_miss_latency::total     12792983                       # number of WriteLineReq MSHR miss cycles
system.iocache.WriteLineReq_mshr_miss_rate::.tsunami.ide            1                       # mshr miss rate for WriteLineReq accesses
system.iocache.WriteLineReq_mshr_miss_rate::total            1                       # mshr miss rate for WriteLineReq accesses
system.iocache.WriteLineReq_avg_mshr_miss_latency::.tsunami.ide 66630.119792                       # average WriteLineReq mshr miss latency
system.iocache.WriteLineReq_avg_mshr_miss_latency::total 66630.119792                       # average WriteLineReq mshr miss latency
system.iocache.tags.pwrStateResidencyTicks::UNDEFINED 2542163017500                       # Cumulative time (in ticks) in various power states
system.iocache.tags.tagsinuse                3.304420                       # Cycle average of tags in use
system.iocache.tags.total_refs                    179                       # Total number of references to valid blocks.
system.iocache.tags.sampled_refs                  179                       # Sample count of references to valid blocks.
system.iocache.tags.avg_refs                        1                       # Average number of references to valid blocks.
system.iocache.tags.warmup_cycle         2539651990000                       # Cycle when the warmup percentage was hit.
system.iocache.tags.occ_blocks::.tsunami.ide     3.304420                       # Average occupied blocks per requestor
system.iocache.tags.occ_percent::.tsunami.ide     0.206526                       # Average percentage of cache occupancy
system.iocache.tags.occ_percent::total       0.206526                       # Average percentage of cache occupancy
system.iocache.tags.occ_task_id_blocks::1023           16                       # Occupied blocks per task id
system.iocache.tags.age_task_id_blocks_1023::3           16                       # Occupied blocks per task id
system.iocache.tags.occ_task_id_percent::1023            1                       # Percentage of cache occupancy per task id
system.iocache.tags.tag_accesses                 1755                       # Number of tag accesses
system.iocache.tags.data_accesses                1755                       # Number of data accesses
system.membus.pwrStateResidencyTicks::UNDEFINED 2542163017500                       # Cumulative time (in ticks) in various power states
system.membus.trans_dist::ReadReq                 108                       # Transaction distribution
system.membus.trans_dist::ReadResp             130940                       # Transaction distribution
system.membus.trans_dist::WriteReq                100                       # Transaction distribution
system.membus.trans_dist::WriteResp               100                       # Transaction distribution
system.membus.trans_dist::WritebackDirty        34889                       # Transaction distribution
system.membus.trans_dist::WritebackClean        88953                       # Transaction distribution
system.membus.trans_dist::CleanEvict            34544                       # Transaction distribution
system.membus.trans_dist::UpgradeReq               16                       # Transaction distribution
system.membus.trans_dist::ReadExReq             28992                       # Transaction distribution
system.membus.trans_dist::ReadExResp            28992                       # Transaction distribution
system.membus.trans_dist::ReadCleanReq          89543                       # Transaction distribution
system.membus.trans_dist::ReadSharedReq         41291                       # Transaction distribution
system.membus.trans_dist::BadAddressError            2                       # Transaction distribution
system.membus.trans_dist::InvalidateReq           192                       # Transaction distribution
system.membus.pkt_count_system.iocache.mem_side::system.mem_ctrls.port          374                       # Packet count per connected master and slave (bytes)
system.membus.pkt_count_system.iocache.mem_side::total          374                       # Packet count per connected master and slave (bytes)
system.membus.pkt_count_system.cpu.icache.mem_side::system.mem_ctrls.port       267972                       # Packet count per connected master and slave (bytes)
system.membus.pkt_count_system.cpu.icache.mem_side::total       267972                       # Packet count per connected master and slave (bytes)
system.membus.pkt_count_system.cpu.dcache.mem_side::system.bridge.slave          416                       # Packet count per connected master and slave (bytes)
system.membus.pkt_count_system.cpu.dcache.mem_side::system.mem_ctrls.port       209826                       # Packet count per connected master and slave (bytes)
system.membus.pkt_count_system.cpu.dcache.mem_side::system.membus.badaddr_responder.pio            4                       # Packet count per connected master and slave (bytes)
system.membus.pkt_count_system.cpu.dcache.mem_side::total       210246                       # Packet count per connected master and slave (bytes)
system.membus.pkt_count::total                 478592                       # Packet count per connected master and slave (bytes)
system.membus.pkt_size_system.iocache.mem_side::system.mem_ctrls.port        11264                       # Cumulative packet size per connected master and slave (bytes)
system.membus.pkt_size_system.iocache.mem_side::total        11264                       # Cumulative packet size per connected master and slave (bytes)
system.membus.pkt_size_system.cpu.icache.mem_side::system.mem_ctrls.port     11419456                       # Cumulative packet size per connected master and slave (bytes)
system.membus.pkt_size_system.cpu.icache.mem_side::total     11419456                       # Cumulative packet size per connected master and slave (bytes)
system.membus.pkt_size_system.cpu.dcache.mem_side::system.bridge.slave          441                       # Cumulative packet size per connected master and slave (bytes)
system.membus.pkt_size_system.cpu.dcache.mem_side::system.mem_ctrls.port      6719424                       # Cumulative packet size per connected master and slave (bytes)
system.membus.pkt_size_system.cpu.dcache.mem_side::total      6719865                       # Cumulative packet size per connected master and slave (bytes)
system.membus.pkt_size::total                18150585                       # Cumulative packet size per connected master and slave (bytes)
system.membus.snoops                               70                       # Total snoops (count)
system.membus.snoopTraffic                       4480                       # Total snoop traffic (bytes)
system.membus.snoop_fanout::samples            160242                       # Request fanout histogram
system.membus.snoop_fanout::mean             0.002721                       # Request fanout histogram
system.membus.snoop_fanout::stdev            0.052091                       # Request fanout histogram
system.membus.snoop_fanout::underflows              0      0.00%      0.00% # Request fanout histogram
system.membus.snoop_fanout::0                  159806     99.73%     99.73% # Request fanout histogram
system.membus.snoop_fanout::1                     436      0.27%    100.00% # Request fanout histogram
system.membus.snoop_fanout::2                       0      0.00%    100.00% # Request fanout histogram
system.membus.snoop_fanout::3                       0      0.00%    100.00% # Request fanout histogram
system.membus.snoop_fanout::overflows               0      0.00%    100.00% # Request fanout histogram
system.membus.snoop_fanout::min_value               0                       # Request fanout histogram
system.membus.snoop_fanout::max_value               1                       # Request fanout histogram
system.membus.snoop_fanout::total              160242                       # Request fanout histogram
system.membus.reqLayer0.occupancy              353500                       # Layer occupancy (ticks)
system.membus.reqLayer0.utilization               0.0                       # Layer utilization (%)
system.membus.reqLayer1.occupancy           837302528                       # Layer occupancy (ticks)
system.membus.reqLayer1.utilization               6.9                       # Layer utilization (%)
system.membus.reqLayer2.occupancy                3000                       # Layer occupancy (ticks)
system.membus.reqLayer2.utilization               0.0                       # Layer utilization (%)
system.membus.respLayer1.occupancy              17997                       # Layer occupancy (ticks)
system.membus.respLayer1.utilization              0.0                       # Layer utilization (%)
system.membus.respLayer3.occupancy          378061750                       # Layer occupancy (ticks)
system.membus.respLayer3.utilization              3.1                       # Layer utilization (%)
system.membus.badaddr_responder.pwrStateResidencyTicks::UNDEFINED 2542163017500                       # Cumulative time (in ticks) in various power states
system.membus.respLayer2.occupancy          474877500                       # Layer occupancy (ticks)
system.membus.respLayer2.utilization              3.9                       # Layer utilization (%)
system.clk_domain.clock                          1000                       # Clock period in ticks
system.tsunami.fake_uart1.pwrStateResidencyTicks::UNDEFINED 2542163017500                       # Cumulative time (in ticks) in various power states
system.tsunami.fake_uart2.pwrStateResidencyTicks::UNDEFINED 2542163017500                       # Cumulative time (in ticks) in various power states
system.tsunami.fake_uart3.pwrStateResidencyTicks::UNDEFINED 2542163017500                       # Cumulative time (in ticks) in various power states
system.tsunami.fake_uart4.pwrStateResidencyTicks::UNDEFINED 2542163017500                       # Cumulative time (in ticks) in various power states
system.tsunami.fake_ppc.pwrStateResidencyTicks::UNDEFINED 2542163017500                       # Cumulative time (in ticks) in various power states
system.tsunami.cchip.pwrStateResidencyTicks::UNDEFINED 2542163017500                       # Cumulative time (in ticks) in various power states
system.tsunami.io.pwrStateResidencyTicks::UNDEFINED 2542163017500                       # Cumulative time (in ticks) in various power states
system.tsunami.pchip.pwrStateResidencyTicks::UNDEFINED 2542163017500                       # Cumulative time (in ticks) in various power states
system.tsunami.fake_ata1.pwrStateResidencyTicks::UNDEFINED 2542163017500                       # Cumulative time (in ticks) in various power states
system.tsunami.fake_ata0.pwrStateResidencyTicks::UNDEFINED 2542163017500                       # Cumulative time (in ticks) in various power states
system.tsunami.backdoor.pwrStateResidencyTicks::UNDEFINED 2542163017500                       # Cumulative time (in ticks) in various power states
system.tsunami.fake_pnp_read3.pwrStateResidencyTicks::UNDEFINED 2542163017500                       # Cumulative time (in ticks) in various power states
system.tsunami.fake_pnp_read2.pwrStateResidencyTicks::UNDEFINED 2542163017500                       # Cumulative time (in ticks) in various power states
system.tsunami.fake_pnp_read1.pwrStateResidencyTicks::UNDEFINED 2542163017500                       # Cumulative time (in ticks) in various power states
system.tsunami.fake_pnp_read0.pwrStateResidencyTicks::UNDEFINED 2542163017500                       # Cumulative time (in ticks) in various power states
system.tsunami.fake_pnp_read7.pwrStateResidencyTicks::UNDEFINED 2542163017500                       # Cumulative time (in ticks) in various power states
system.tsunami.fake_pnp_read6.pwrStateResidencyTicks::UNDEFINED 2542163017500                       # Cumulative time (in ticks) in various power states
system.tsunami.fake_pnp_read5.pwrStateResidencyTicks::UNDEFINED 2542163017500                       # Cumulative time (in ticks) in various power states
system.tsunami.fake_pnp_read4.pwrStateResidencyTicks::UNDEFINED 2542163017500                       # Cumulative time (in ticks) in various power states
system.tsunami.fake_pnp_write.pwrStateResidencyTicks::UNDEFINED 2542163017500                       # Cumulative time (in ticks) in various power states
system.tsunami.fb.pwrStateResidencyTicks::UNDEFINED 2542163017500                       # Cumulative time (in ticks) in various power states
system.tsunami.fake_pnp_addr.pwrStateResidencyTicks::UNDEFINED 2542163017500                       # Cumulative time (in ticks) in various power states
system.tsunami.fake_OROM.pwrStateResidencyTicks::UNDEFINED 2542163017500                       # Cumulative time (in ticks) in various power states
system.tsunami.uart.pwrStateResidencyTicks::UNDEFINED 2542163017500                       # Cumulative time (in ticks) in various power states
system.tsunami.fake_sm_chip.pwrStateResidencyTicks::UNDEFINED 2542163017500                       # Cumulative time (in ticks) in various power states
system.tsunami.ethernet.pwrStateResidencyTicks::UNDEFINED 2542163017500                       # Cumulative time (in ticks) in various power states
system.tsunami.ide.pwrStateResidencyTicks::UNDEFINED 2542163017500                       # Cumulative time (in ticks) in various power states
system.cpu_voltage_domain.voltage                   1                       # Voltage in Volts
system.mem_ctrls.pwrStateResidencyTicks::UNDEFINED 2542163017500                       # Cumulative time (in ticks) in various power states
system.mem_ctrls.bytes_read::.cpu.inst        5726464                       # Number of bytes read from this memory
system.mem_ctrls.bytes_read::.cpu.data        4497792                       # Number of bytes read from this memory
system.mem_ctrls.bytes_read::total           10224256                       # Number of bytes read from this memory
system.mem_ctrls.bytes_inst_read::.cpu.inst      5726464                       # Number of instructions bytes read from this memory
system.mem_ctrls.bytes_inst_read::total       5726464                       # Number of instructions bytes read from this memory
system.mem_ctrls.bytes_written::.writebacks      2232896                       # Number of bytes written to this memory
system.mem_ctrls.bytes_written::total         2232896                       # Number of bytes written to this memory
system.mem_ctrls.num_reads::.cpu.inst           89476                       # Number of read requests responded to by this memory
system.mem_ctrls.num_reads::.cpu.data           70278                       # Number of read requests responded to by this memory
system.mem_ctrls.num_reads::total              159754                       # Number of read requests responded to by this memory
system.mem_ctrls.num_writes::.writebacks        34889                       # Number of write requests responded to by this memory
system.mem_ctrls.num_writes::total              34889                       # Number of write requests responded to by this memory
system.mem_ctrls.bw_read::.cpu.inst         471190876                       # Total read bandwidth from this memory (bytes/s)
system.mem_ctrls.bw_read::.cpu.data         370092007                       # Total read bandwidth from this memory (bytes/s)
system.mem_ctrls.bw_read::total             841282883                       # Total read bandwidth from this memory (bytes/s)
system.mem_ctrls.bw_inst_read::.cpu.inst    471190876                       # Instruction read bandwidth from this memory (bytes/s)
system.mem_ctrls.bw_inst_read::total        471190876                       # Instruction read bandwidth from this memory (bytes/s)
system.mem_ctrls.bw_write::.writebacks      183729475                       # Write bandwidth from this memory (bytes/s)
system.mem_ctrls.bw_write::total            183729475                       # Write bandwidth from this memory (bytes/s)
system.mem_ctrls.bw_total::.writebacks      183729475                       # Total bandwidth to/from this memory (bytes/s)
system.mem_ctrls.bw_total::.cpu.inst        471190876                       # Total bandwidth to/from this memory (bytes/s)
system.mem_ctrls.bw_total::.cpu.data        370092007                       # Total bandwidth to/from this memory (bytes/s)
system.mem_ctrls.bw_total::total           1025012358                       # Total bandwidth to/from this memory (bytes/s)
system.mem_ctrls.avgPriority_.writebacks::samples    121695.00                       # Average QoS priority value for accepted requests
system.mem_ctrls.avgPriority_.cpu.inst::samples     79570.00                       # Average QoS priority value for accepted requests
system.mem_ctrls.avgPriority_.cpu.data::samples     69774.00                       # Average QoS priority value for accepted requests
system.mem_ctrls.priorityMinLatency      0.000000018750                       # per QoS priority minimum request to response latency (s)
system.mem_ctrls.priorityMaxLatency      0.000143916750                       # per QoS priority maximum request to response latency (s)
system.mem_ctrls.numReadWriteTurnArounds         7488                       # Number of turnarounds from READ to WRITE
system.mem_ctrls.numWriteReadTurnArounds         7488                       # Number of turnarounds from WRITE to READ
system.mem_ctrls.numStayReadState              414603                       # Number of times bus staying in READ state
system.mem_ctrls.numStayWriteState             114270                       # Number of times bus staying in WRITE state
system.mem_ctrls.readReqs                      159754                       # Number of read requests accepted
system.mem_ctrls.writeReqs                     123622                       # Number of write requests accepted
system.mem_ctrls.readBursts                    159754                       # Number of DRAM read bursts, including those serviced by the write queue
system.mem_ctrls.writeBursts                   123622                       # Number of DRAM write bursts, including those merged in the write queue
system.mem_ctrls.servicedByWrQ                  10410                       # Number of DRAM read bursts serviced by the write queue
system.mem_ctrls.mergedWrBursts                  1927                       # Number of DRAM write bursts merged with an existing one
system.mem_ctrls.neitherReadNorWriteReqs            0                       # Number of requests that are neither read nor write
system.mem_ctrls.perBankRdBursts::0              9009                       # Per bank write bursts
system.mem_ctrls.perBankRdBursts::1              6679                       # Per bank write bursts
system.mem_ctrls.perBankRdBursts::2             10356                       # Per bank write bursts
system.mem_ctrls.perBankRdBursts::3              7289                       # Per bank write bursts
system.mem_ctrls.perBankRdBursts::4              8669                       # Per bank write bursts
system.mem_ctrls.perBankRdBursts::5             10065                       # Per bank write bursts
system.mem_ctrls.perBankRdBursts::6              8833                       # Per bank write bursts
system.mem_ctrls.perBankRdBursts::7              8842                       # Per bank write bursts
system.mem_ctrls.perBankRdBursts::8             11954                       # Per bank write bursts
system.mem_ctrls.perBankRdBursts::9              9368                       # Per bank write bursts
system.mem_ctrls.perBankRdBursts::10            10833                       # Per bank write bursts
system.mem_ctrls.perBankRdBursts::11            12190                       # Per bank write bursts
system.mem_ctrls.perBankRdBursts::12             8877                       # Per bank write bursts
system.mem_ctrls.perBankRdBursts::13            13825                       # Per bank write bursts
system.mem_ctrls.perBankRdBursts::14             5603                       # Per bank write bursts
system.mem_ctrls.perBankRdBursts::15             6952                       # Per bank write bursts
system.mem_ctrls.perBankWrBursts::0              7349                       # Per bank write bursts
system.mem_ctrls.perBankWrBursts::1              4473                       # Per bank write bursts
system.mem_ctrls.perBankWrBursts::2              9080                       # Per bank write bursts
system.mem_ctrls.perBankWrBursts::3              8104                       # Per bank write bursts
system.mem_ctrls.perBankWrBursts::4              7867                       # Per bank write bursts
system.mem_ctrls.perBankWrBursts::5              9799                       # Per bank write bursts
system.mem_ctrls.perBankWrBursts::6              7648                       # Per bank write bursts
system.mem_ctrls.perBankWrBursts::7              7019                       # Per bank write bursts
system.mem_ctrls.perBankWrBursts::8             10837                       # Per bank write bursts
system.mem_ctrls.perBankWrBursts::9              8543                       # Per bank write bursts
system.mem_ctrls.perBankWrBursts::10             8161                       # Per bank write bursts
system.mem_ctrls.perBankWrBursts::11             8148                       # Per bank write bursts
system.mem_ctrls.perBankWrBursts::12             5481                       # Per bank write bursts
system.mem_ctrls.perBankWrBursts::13            10162                       # Per bank write bursts
system.mem_ctrls.perBankWrBursts::14             3208                       # Per bank write bursts
system.mem_ctrls.perBankWrBursts::15             5786                       # Per bank write bursts
system.mem_ctrls.avgRdQLen                       1.09                       # Average read queue length when enqueuing
system.mem_ctrls.avgWrQLen                      25.72                       # Average write queue length when enqueuing
system.mem_ctrls.totQLat                   2040905750                       # Total ticks spent queuing
system.mem_ctrls.totBusLat                  746720000                       # Total ticks spent in databus transfers
system.mem_ctrls.totMemAccLat              4841105750                       # Total ticks spent from burst creation until serviced by the DRAM
system.mem_ctrls.avgQLat                     13665.80                       # Average queueing delay per DRAM burst
system.mem_ctrls.avgBusLat                    5000.00                       # Average bus latency per DRAM burst
system.mem_ctrls.avgMemAccLat                32415.80                       # Average memory access latency per DRAM burst
system.mem_ctrls.numRdRetry                         0                       # Number of times read queue was full causing retry
system.mem_ctrls.numWrRetry                         0                       # Number of times write queue was full causing retry
system.mem_ctrls.readRowHits                   105641                       # Number of row buffer hits during reads
system.mem_ctrls.writeRowHits                   82165                       # Number of row buffer hits during writes
system.mem_ctrls.readRowHitRate                 70.74                       # Row buffer hit rate for reads
system.mem_ctrls.writeRowHitRate                67.52                       # Row buffer hit rate for writes
system.mem_ctrls.readPktSize::0                     0                       # Read request sizes (log2)
system.mem_ctrls.readPktSize::1                     0                       # Read request sizes (log2)
system.mem_ctrls.readPktSize::2                     0                       # Read request sizes (log2)
system.mem_ctrls.readPktSize::3                     0                       # Read request sizes (log2)
system.mem_ctrls.readPktSize::4                     0                       # Read request sizes (log2)
system.mem_ctrls.readPktSize::5                     0                       # Read request sizes (log2)
system.mem_ctrls.readPktSize::6                159754                       # Read request sizes (log2)
system.mem_ctrls.writePktSize::0                    0                       # Write request sizes (log2)
system.mem_ctrls.writePktSize::1                    0                       # Write request sizes (log2)
system.mem_ctrls.writePktSize::2                    0                       # Write request sizes (log2)
system.mem_ctrls.writePktSize::3                    0                       # Write request sizes (log2)
system.mem_ctrls.writePktSize::4                    0                       # Write request sizes (log2)
system.mem_ctrls.writePktSize::5                    0                       # Write request sizes (log2)
system.mem_ctrls.writePktSize::6               123622                       # Write request sizes (log2)
system.mem_ctrls.rdQLenPdf::0                  136875                       # What read queue length does an incoming req see
system.mem_ctrls.rdQLenPdf::1                   12165                       # What read queue length does an incoming req see
system.mem_ctrls.rdQLenPdf::2                     304                       # What read queue length does an incoming req see
system.mem_ctrls.rdQLenPdf::3                       0                       # What read queue length does an incoming req see
system.mem_ctrls.rdQLenPdf::4                       0                       # What read queue length does an incoming req see
system.mem_ctrls.rdQLenPdf::5                       0                       # What read queue length does an incoming req see
system.mem_ctrls.rdQLenPdf::6                       0                       # What read queue length does an incoming req see
system.mem_ctrls.rdQLenPdf::7                       0                       # What read queue length does an incoming req see
system.mem_ctrls.rdQLenPdf::8                       0                       # What read queue length does an incoming req see
system.mem_ctrls.rdQLenPdf::9                       0                       # What read queue length does an incoming req see
system.mem_ctrls.rdQLenPdf::10                      0                       # What read queue length does an incoming req see
system.mem_ctrls.rdQLenPdf::11                      0                       # What read queue length does an incoming req see
system.mem_ctrls.rdQLenPdf::12                      0                       # What read queue length does an incoming req see
system.mem_ctrls.rdQLenPdf::13                      0                       # What read queue length does an incoming req see
system.mem_ctrls.rdQLenPdf::14                      0                       # What read queue length does an incoming req see
system.mem_ctrls.rdQLenPdf::15                      0                       # What read queue length does an incoming req see
system.mem_ctrls.rdQLenPdf::16                      0                       # What read queue length does an incoming req see
system.mem_ctrls.rdQLenPdf::17                      0                       # What read queue length does an incoming req see
system.mem_ctrls.rdQLenPdf::18                      0                       # What read queue length does an incoming req see
system.mem_ctrls.rdQLenPdf::19                      0                       # What read queue length does an incoming req see
system.mem_ctrls.rdQLenPdf::20                      0                       # What read queue length does an incoming req see
system.mem_ctrls.rdQLenPdf::21                      0                       # What read queue length does an incoming req see
system.mem_ctrls.rdQLenPdf::22                      0                       # What read queue length does an incoming req see
system.mem_ctrls.rdQLenPdf::23                      0                       # What read queue length does an incoming req see
system.mem_ctrls.rdQLenPdf::24                      0                       # What read queue length does an incoming req see
system.mem_ctrls.rdQLenPdf::25                      0                       # What read queue length does an incoming req see
system.mem_ctrls.rdQLenPdf::26                      0                       # What read queue length does an incoming req see
system.mem_ctrls.rdQLenPdf::27                      0                       # What read queue length does an incoming req see
system.mem_ctrls.rdQLenPdf::28                      0                       # What read queue length does an incoming req see
system.mem_ctrls.rdQLenPdf::29                      0                       # What read queue length does an incoming req see
system.mem_ctrls.rdQLenPdf::30                      0                       # What read queue length does an incoming req see
system.mem_ctrls.rdQLenPdf::31                      0                       # What read queue length does an incoming req see
system.mem_ctrls.wrQLenPdf::0                       1                       # What write queue length does an incoming req see
system.mem_ctrls.wrQLenPdf::1                       1                       # What write queue length does an incoming req see
system.mem_ctrls.wrQLenPdf::2                       1                       # What write queue length does an incoming req see
system.mem_ctrls.wrQLenPdf::3                       1                       # What write queue length does an incoming req see
system.mem_ctrls.wrQLenPdf::4                       1                       # What write queue length does an incoming req see
system.mem_ctrls.wrQLenPdf::5                       1                       # What write queue length does an incoming req see
system.mem_ctrls.wrQLenPdf::6                       1                       # What write queue length does an incoming req see
system.mem_ctrls.wrQLenPdf::7                       1                       # What write queue length does an incoming req see
system.mem_ctrls.wrQLenPdf::8                       1                       # What write queue length does an incoming req see
system.mem_ctrls.wrQLenPdf::9                       1                       # What write queue length does an incoming req see
system.mem_ctrls.wrQLenPdf::10                      1                       # What write queue length does an incoming req see
system.mem_ctrls.wrQLenPdf::11                      1                       # What write queue length does an incoming req see
system.mem_ctrls.wrQLenPdf::12                      1                       # What write queue length does an incoming req see
system.mem_ctrls.wrQLenPdf::13                      1                       # What write queue length does an incoming req see
system.mem_ctrls.wrQLenPdf::14                      1                       # What write queue length does an incoming req see
system.mem_ctrls.wrQLenPdf::15                    685                       # What write queue length does an incoming req see
system.mem_ctrls.wrQLenPdf::16                    798                       # What write queue length does an incoming req see
system.mem_ctrls.wrQLenPdf::17                   6949                       # What write queue length does an incoming req see
system.mem_ctrls.wrQLenPdf::18                   7499                       # What write queue length does an incoming req see
system.mem_ctrls.wrQLenPdf::19                   7603                       # What write queue length does an incoming req see
system.mem_ctrls.wrQLenPdf::20                   7582                       # What write queue length does an incoming req see
system.mem_ctrls.wrQLenPdf::21                   7561                       # What write queue length does an incoming req see
system.mem_ctrls.wrQLenPdf::22                   7650                       # What write queue length does an incoming req see
system.mem_ctrls.wrQLenPdf::23                   7571                       # What write queue length does an incoming req see
system.mem_ctrls.wrQLenPdf::24                   7558                       # What write queue length does an incoming req see
system.mem_ctrls.wrQLenPdf::25                   7560                       # What write queue length does an incoming req see
system.mem_ctrls.wrQLenPdf::26                   7584                       # What write queue length does an incoming req see
system.mem_ctrls.wrQLenPdf::27                   7537                       # What write queue length does an incoming req see
system.mem_ctrls.wrQLenPdf::28                   7520                       # What write queue length does an incoming req see
system.mem_ctrls.wrQLenPdf::29                   7518                       # What write queue length does an incoming req see
system.mem_ctrls.wrQLenPdf::30                   7491                       # What write queue length does an incoming req see
system.mem_ctrls.wrQLenPdf::31                   7488                       # What write queue length does an incoming req see
system.mem_ctrls.wrQLenPdf::32                   7488                       # What write queue length does an incoming req see
system.mem_ctrls.wrQLenPdf::33                      7                       # What write queue length does an incoming req see
system.mem_ctrls.wrQLenPdf::34                      6                       # What write queue length does an incoming req see
system.mem_ctrls.wrQLenPdf::35                      4                       # What write queue length does an incoming req see
system.mem_ctrls.wrQLenPdf::36                      2                       # What write queue length does an incoming req see
system.mem_ctrls.wrQLenPdf::37                      1                       # What write queue length does an incoming req see
system.mem_ctrls.wrQLenPdf::38                      1                       # What write queue length does an incoming req see
system.mem_ctrls.wrQLenPdf::39                      1                       # What write queue length does an incoming req see
system.mem_ctrls.wrQLenPdf::40                      1                       # What write queue length does an incoming req see
system.mem_ctrls.wrQLenPdf::41                      2                       # What write queue length does an incoming req see
system.mem_ctrls.wrQLenPdf::42                      1                       # What write queue length does an incoming req see
system.mem_ctrls.wrQLenPdf::43                      1                       # What write queue length does an incoming req see
system.mem_ctrls.wrQLenPdf::44                      1                       # What write queue length does an incoming req see
system.mem_ctrls.wrQLenPdf::45                      1                       # What write queue length does an incoming req see
system.mem_ctrls.wrQLenPdf::46                      1                       # What write queue length does an incoming req see
system.mem_ctrls.wrQLenPdf::47                      1                       # What write queue length does an incoming req see
system.mem_ctrls.wrQLenPdf::48                      1                       # What write queue length does an incoming req see
system.mem_ctrls.wrQLenPdf::49                      1                       # What write queue length does an incoming req see
system.mem_ctrls.wrQLenPdf::50                      1                       # What write queue length does an incoming req see
system.mem_ctrls.wrQLenPdf::51                      1                       # What write queue length does an incoming req see
system.mem_ctrls.wrQLenPdf::52                      1                       # What write queue length does an incoming req see
system.mem_ctrls.wrQLenPdf::53                      1                       # What write queue length does an incoming req see
system.mem_ctrls.wrQLenPdf::54                      1                       # What write queue length does an incoming req see
system.mem_ctrls.wrQLenPdf::55                      0                       # What write queue length does an incoming req see
system.mem_ctrls.wrQLenPdf::56                      0                       # What write queue length does an incoming req see
system.mem_ctrls.wrQLenPdf::57                      0                       # What write queue length does an incoming req see
system.mem_ctrls.wrQLenPdf::58                      0                       # What write queue length does an incoming req see
system.mem_ctrls.wrQLenPdf::59                      0                       # What write queue length does an incoming req see
system.mem_ctrls.wrQLenPdf::60                      0                       # What write queue length does an incoming req see
system.mem_ctrls.wrQLenPdf::61                      0                       # What write queue length does an incoming req see
system.mem_ctrls.wrQLenPdf::62                      0                       # What write queue length does an incoming req see
system.mem_ctrls.wrQLenPdf::63                      0                       # What write queue length does an incoming req see
system.mem_ctrls.bytesPerActivate::samples        83190                       # Bytes accessed per row activation
system.mem_ctrls.bytesPerActivate::mean    208.455055                       # Bytes accessed per row activation
system.mem_ctrls.bytesPerActivate::gmean   140.204299                       # Bytes accessed per row activation
system.mem_ctrls.bytesPerActivate::stdev   224.528942                       # Bytes accessed per row activation
system.mem_ctrls.bytesPerActivate::0-127        35334     42.47%     42.47% # Bytes accessed per row activation
system.mem_ctrls.bytesPerActivate::128-255        24572     29.54%     72.01% # Bytes accessed per row activation
system.mem_ctrls.bytesPerActivate::256-383        10177     12.23%     84.24% # Bytes accessed per row activation
system.mem_ctrls.bytesPerActivate::384-511         4807      5.78%     90.02% # Bytes accessed per row activation
system.mem_ctrls.bytesPerActivate::512-639         2473      2.97%     93.00% # Bytes accessed per row activation
system.mem_ctrls.bytesPerActivate::640-767         1477      1.78%     94.77% # Bytes accessed per row activation
system.mem_ctrls.bytesPerActivate::768-895          915      1.10%     95.87% # Bytes accessed per row activation
system.mem_ctrls.bytesPerActivate::896-1023          622      0.75%     96.62% # Bytes accessed per row activation
system.mem_ctrls.bytesPerActivate::1024-1151         2813      3.38%    100.00% # Bytes accessed per row activation
system.mem_ctrls.bytesPerActivate::total        83190                       # Bytes accessed per row activation
system.mem_ctrls.rdPerTurnAround::samples         7488                       # Reads before turning the bus around for writes
system.mem_ctrls.rdPerTurnAround::mean      19.942708                       # Reads before turning the bus around for writes
system.mem_ctrls.rdPerTurnAround::gmean     18.347101                       # Reads before turning the bus around for writes
system.mem_ctrls.rdPerTurnAround::stdev     12.700253                       # Reads before turning the bus around for writes
system.mem_ctrls.rdPerTurnAround::0-15           1345     17.96%     17.96% # Reads before turning the bus around for writes
system.mem_ctrls.rdPerTurnAround::16-31          5657     75.55%     93.51% # Reads before turning the bus around for writes
system.mem_ctrls.rdPerTurnAround::32-47           307      4.10%     97.61% # Reads before turning the bus around for writes
system.mem_ctrls.rdPerTurnAround::48-63            80      1.07%     98.68% # Reads before turning the bus around for writes
system.mem_ctrls.rdPerTurnAround::64-79            33      0.44%     99.12% # Reads before turning the bus around for writes
system.mem_ctrls.rdPerTurnAround::80-95            22      0.29%     99.41% # Reads before turning the bus around for writes
system.mem_ctrls.rdPerTurnAround::96-111           16      0.21%     99.63% # Reads before turning the bus around for writes
system.mem_ctrls.rdPerTurnAround::112-127           11      0.15%     99.77% # Reads before turning the bus around for writes
system.mem_ctrls.rdPerTurnAround::128-143            7      0.09%     99.87% # Reads before turning the bus around for writes
system.mem_ctrls.rdPerTurnAround::144-159            5      0.07%     99.93% # Reads before turning the bus around for writes
system.mem_ctrls.rdPerTurnAround::160-175            2      0.03%     99.96% # Reads before turning the bus around for writes
system.mem_ctrls.rdPerTurnAround::176-191            1      0.01%     99.97% # Reads before turning the bus around for writes
system.mem_ctrls.rdPerTurnAround::256-271            1      0.01%     99.99% # Reads before turning the bus around for writes
system.mem_ctrls.rdPerTurnAround::416-431            1      0.01%    100.00% # Reads before turning the bus around for writes
system.mem_ctrls.rdPerTurnAround::total          7488                       # Reads before turning the bus around for writes
system.mem_ctrls.wrPerTurnAround::samples         7488                       # Writes before turning the bus around for reads
system.mem_ctrls.wrPerTurnAround::mean      16.247997                       # Writes before turning the bus around for reads
system.mem_ctrls.wrPerTurnAround::gmean     16.231882                       # Writes before turning the bus around for reads
system.mem_ctrls.wrPerTurnAround::stdev      0.757005                       # Writes before turning the bus around for reads
system.mem_ctrls.wrPerTurnAround::16             6676     89.16%     89.16% # Writes before turning the bus around for reads
system.mem_ctrls.wrPerTurnAround::17               92      1.23%     90.38% # Writes before turning the bus around for reads
system.mem_ctrls.wrPerTurnAround::18              464      6.20%     96.58% # Writes before turning the bus around for reads
system.mem_ctrls.wrPerTurnAround::19              194      2.59%     99.17% # Writes before turning the bus around for reads
system.mem_ctrls.wrPerTurnAround::20               56      0.75%     99.92% # Writes before turning the bus around for reads
system.mem_ctrls.wrPerTurnAround::21                5      0.07%     99.99% # Writes before turning the bus around for reads
system.mem_ctrls.wrPerTurnAround::22                1      0.01%    100.00% # Writes before turning the bus around for reads
system.mem_ctrls.wrPerTurnAround::total          7488                       # Writes before turning the bus around for reads
system.mem_ctrls.bytesReadDRAM                9558016                       # Total number of bytes read from DRAM
system.mem_ctrls.bytesReadWrQ                  666240                       # Total number of bytes read from write queue
system.mem_ctrls.bytesWritten                 7786560                       # Total number of bytes written to DRAM
system.mem_ctrls.bytesReadSys                10224256                       # Total read bytes from the system interface side
system.mem_ctrls.bytesWrittenSys              7911808                       # Total written bytes from the system interface side
system.mem_ctrls.avgRdBW                       786.46                       # Average DRAM read bandwidth in MiByte/s
system.mem_ctrls.avgWrBW                       640.70                       # Average achieved write bandwidth in MiByte/s
system.mem_ctrls.avgRdBWSys                    841.28                       # Average system read bandwidth in MiByte/s
system.mem_ctrls.avgWrBWSys                    651.01                       # Average system write bandwidth in MiByte/s
system.mem_ctrls.peakBW                      12800.00                       # Theoretical peak bandwidth in MiByte/s
system.mem_ctrls.busUtil                        11.15                       # Data bus utilization in percentage
system.mem_ctrls.busUtilRead                     6.14                       # Data bus utilization in percentage for reads
system.mem_ctrls.busUtilWrite                    5.01                       # Data bus utilization in percentage for writes
system.mem_ctrls.totGap                   12153167500                       # Total gap between requests
system.mem_ctrls.avgGap                      42887.07                       # Average gap between requests
system.mem_ctrls.masterReadBytes::.cpu.inst      5092480                       # Per-master bytes read from memory
system.mem_ctrls.masterReadBytes::.cpu.data      4465536                       # Per-master bytes read from memory
system.mem_ctrls.masterWriteBytes::.writebacks      7786560                       # Per-master bytes write to memory
system.mem_ctrls.masterReadRate::.cpu.inst 419024744.362017393112                       # Per-master bytes read from memory rate (Bytes/sec)
[...]
system.cpu.icache.ReadReq_mshr_misses::total       636569                       # number of ReadReq MSHR misses
system.cpu.icache.ReadReq_mshr_miss_latency::.cpu.inst  38695732000                       # number of ReadReq MSHR miss cycles
system.cpu.icache.ReadReq_mshr_miss_latency::total  38695732000                       # number of ReadReq MSHR miss cycles
system.cpu.icache.ReadReq_mshr_miss_rate::.cpu.inst     0.004529                       # mshr miss rate for ReadReq accesses
system.cpu.icache.ReadReq_mshr_miss_rate::total     0.004529                       # mshr miss rate for ReadReq accesses
system.cpu.icache.ReadReq_avg_mshr_miss_latency::.cpu.inst 60787.961713                       # average ReadReq mshr miss latency
system.cpu.icache.ReadReq_avg_mshr_miss_latency::total 60787.961713                       # average ReadReq mshr miss latency
system.cpu.icache.tags.pwrStateResidencyTicks::UNDEFINED 404891531000                       # Cumulative time (in ticks) in various power states
system.cpu.icache.tags.tagsinuse                  512                       # Cycle average of tags in use
system.cpu.icache.tags.total_refs           140776964                       # Total number of references to valid blocks.
system.cpu.icache.tags.sampled_refs            637082                       # Sample count of references to valid blocks.
system.cpu.icache.tags.avg_refs            220.971498                       # Average number of references to valid blocks.
system.cpu.icache.tags.warmup_cycle                 0                       # Cycle when the warmup percentage was hit.
system.cpu.icache.tags.occ_blocks::.cpu.inst          512                       # Average occupied blocks per requestor
system.cpu.icache.tags.occ_percent::.cpu.inst            1                       # Average percentage of cache occupancy
system.cpu.icache.tags.occ_percent::total            1                       # Average percentage of cache occupancy
system.cpu.icache.tags.occ_task_id_blocks::1024          512                       # Occupied blocks per task id
system.cpu.icache.tags.age_task_id_blocks_1024::2          198                       # Occupied blocks per task id
system.cpu.icache.tags.age_task_id_blocks_1024::3          290                       # Occupied blocks per task id
system.cpu.icache.tags.age_task_id_blocks_1024::4           24                       # Occupied blocks per task id
system.cpu.icache.tags.occ_task_id_percent::1024            1                       # Percentage of cache occupancy per task id
system.cpu.icache.tags.tag_accesses         281727944                       # Number of tag accesses
system.cpu.icache.tags.data_accesses        281727944                       # Number of data accesses
system.cpu.dcache.pwrStateResidencyTicks::UNDEFINED 404891531000                       # Cumulative time (in ticks) in various power states
system.cpu.dcache.demand_hits::.cpu.data    118486973                       # number of demand (read+write) hits
system.cpu.dcache.demand_hits::total        118486973                       # number of demand (read+write) hits
system.cpu.dcache.overall_hits::.cpu.data    118486973                       # number of overall hits
system.cpu.dcache.overall_hits::total       118486973                       # number of overall hits
system.cpu.dcache.demand_misses::.cpu.data      1725096                       # number of demand (read+write) misses
system.cpu.dcache.demand_misses::total        1725096                       # number of demand (read+write) misses
system.cpu.dcache.overall_misses::.cpu.data      1725096                       # number of overall misses
system.cpu.dcache.overall_misses::total       1725096                       # number of overall misses
system.cpu.dcache.demand_miss_latency::.cpu.data 107168259500                       # number of demand (read+write) miss cycles
system.cpu.dcache.demand_miss_latency::total 107168259500                       # number of demand (read+write) miss cycles
system.cpu.dcache.overall_miss_latency::.cpu.data 107168259500                       # number of overall miss cycles
system.cpu.dcache.overall_miss_latency::total 107168259500                       # number of overall miss cycles
system.cpu.dcache.demand_accesses::.cpu.data    120212069                       # number of demand (read+write) accesses
system.cpu.dcache.demand_accesses::total    120212069                       # number of demand (read+write) accesses
system.cpu.dcache.overall_accesses::.cpu.data    120212069                       # number of overall (read+write) accesses
system.cpu.dcache.overall_accesses::total    120212069                       # number of overall (read+write) accesses
system.cpu.dcache.demand_miss_rate::.cpu.data     0.014350                       # miss rate for demand accesses
system.cpu.dcache.demand_miss_rate::total     0.014350                       # miss rate for demand accesses
system.cpu.dcache.overall_miss_rate::.cpu.data     0.014350                       # miss rate for overall accesses
system.cpu.dcache.overall_miss_rate::total     0.014350                       # miss rate for overall accesses
system.cpu.dcache.demand_avg_miss_latency::.cpu.data 62123.069962                       # average overall miss latency
system.cpu.dcache.demand_avg_miss_latency::total 62123.069962                       # average overall miss latency
system.cpu.dcache.overall_avg_miss_latency::.cpu.data 62123.069962                       # average overall miss latency
system.cpu.dcache.overall_avg_miss_latency::total 62123.069962                       # average overall miss latency
system.cpu.dcache.blocked_cycles::no_mshrs            0                       # number of cycles access was blocked
system.cpu.dcache.blocked_cycles::no_targets            0                       # number of cycles access was blocked
system.cpu.dcache.blocked::no_mshrs                 0                       # number of cycles access was blocked
system.cpu.dcache.blocked::no_targets               0                       # number of cycles access was blocked
system.cpu.dcache.avg_blocked_cycles::no_mshrs          nan                       # average number of cycles each access was blocked
system.cpu.dcache.avg_blocked_cycles::no_targets          nan                       # average number of cycles each access was blocked
system.cpu.dcache.writebacks::.writebacks       739284                       # number of writebacks
system.cpu.dcache.writebacks::total            739284                       # number of writebacks
system.cpu.dcache.demand_mshr_hits::.cpu.data       542916                       # number of demand (read+write) MSHR hits
system.cpu.dcache.demand_mshr_hits::total       542916                       # number of demand (read+write) MSHR hits
system.cpu.dcache.overall_mshr_hits::.cpu.data       542916                       # number of overall MSHR hits
system.cpu.dcache.overall_mshr_hits::total       542916                       # number of overall MSHR hits
system.cpu.dcache.demand_mshr_misses::.cpu.data      1182180                       # number of demand (read+write) MSHR misses
system.cpu.dcache.demand_mshr_misses::total      1182180                       # number of demand (read+write) MSHR misses
system.cpu.dcache.overall_mshr_misses::.cpu.data      1182180                       # number of overall MSHR misses
system.cpu.dcache.overall_mshr_misses::total      1182180                       # number of overall MSHR misses
system.cpu.dcache.overall_mshr_uncacheable_misses::.cpu.data          415                       # number of overall MSHR uncacheable misses
system.cpu.dcache.overall_mshr_uncacheable_misses::total          415                       # number of overall MSHR uncacheable misses
system.cpu.dcache.demand_mshr_miss_latency::.cpu.data  72692386000                       # number of demand (read+write) MSHR miss cycles
system.cpu.dcache.demand_mshr_miss_latency::total  72692386000                       # number of demand (read+write) MSHR miss cycles
system.cpu.dcache.overall_mshr_miss_latency::.cpu.data  72692386000                       # number of overall MSHR miss cycles
system.cpu.dcache.overall_mshr_miss_latency::total  72692386000                       # number of overall MSHR miss cycles
system.cpu.dcache.demand_mshr_miss_rate::.cpu.data     0.009834                       # mshr miss rate for demand accesses
system.cpu.dcache.demand_mshr_miss_rate::total     0.009834                       # mshr miss rate for demand accesses
system.cpu.dcache.overall_mshr_miss_rate::.cpu.data     0.009834                       # mshr miss rate for overall accesses
system.cpu.dcache.overall_mshr_miss_rate::total     0.009834                       # mshr miss rate for overall accesses
system.cpu.dcache.demand_avg_mshr_miss_latency::.cpu.data 61490.116564                       # average overall mshr miss latency
system.cpu.dcache.demand_avg_mshr_miss_latency::total 61490.116564                       # average overall mshr miss latency
system.cpu.dcache.overall_avg_mshr_miss_latency::.cpu.data 61490.116564                       # average overall mshr miss latency
system.cpu.dcache.overall_avg_mshr_miss_latency::total 61490.116564                       # average overall mshr miss latency
system.cpu.dcache.replacements                1187413                       # number of replacements
system.cpu.dcache.ReadReq_hits::.cpu.data     92425626                       # number of ReadReq hits
system.cpu.dcache.ReadReq_hits::total        92425626                       # number of ReadReq hits
system.cpu.dcache.ReadReq_misses::.cpu.data       816289                       # number of ReadReq misses
system.cpu.dcache.ReadReq_misses::total        816289                       # number of ReadReq misses
system.cpu.dcache.ReadReq_miss_latency::.cpu.data  52520886000                       # number of ReadReq miss cycles
system.cpu.dcache.ReadReq_miss_latency::total  52520886000                       # number of ReadReq miss cycles
system.cpu.dcache.ReadReq_accesses::.cpu.data     93241915                       # number of ReadReq accesses(hits+misses)
system.cpu.dcache.ReadReq_accesses::total     93241915                       # number of ReadReq accesses(hits+misses)
system.cpu.dcache.ReadReq_miss_rate::.cpu.data     0.008755                       # miss rate for ReadReq accesses
system.cpu.dcache.ReadReq_miss_rate::total     0.008755                       # miss rate for ReadReq accesses
system.cpu.dcache.ReadReq_avg_miss_latency::.cpu.data 64341.043429                       # average ReadReq miss latency
system.cpu.dcache.ReadReq_avg_miss_latency::total 64341.043429                       # average ReadReq miss latency
system.cpu.dcache.ReadReq_mshr_hits::.cpu.data        97190                       # number of ReadReq MSHR hits
system.cpu.dcache.ReadReq_mshr_hits::total        97190                       # number of ReadReq MSHR hits
system.cpu.dcache.ReadReq_mshr_misses::.cpu.data       719099                       # number of ReadReq MSHR misses
system.cpu.dcache.ReadReq_mshr_misses::total       719099                       # number of ReadReq MSHR misses
system.cpu.dcache.ReadReq_mshr_miss_latency::.cpu.data  45748313500                       # number of ReadReq MSHR miss cycles
system.cpu.dcache.ReadReq_mshr_miss_latency::total  45748313500                       # number of ReadReq MSHR miss cycles
system.cpu.dcache.ReadReq_mshr_miss_rate::.cpu.data     0.007712                       # mshr miss rate for ReadReq accesses
system.cpu.dcache.ReadReq_mshr_miss_rate::total     0.007712                       # mshr miss rate for ReadReq accesses
system.cpu.dcache.ReadReq_avg_mshr_miss_latency::.cpu.data 63618.936336                       # average ReadReq mshr miss latency
system.cpu.dcache.ReadReq_avg_mshr_miss_latency::total 63618.936336                       # average ReadReq mshr miss latency
system.cpu.dcache.WriteReq_hits::.cpu.data     26061347                       # number of WriteReq hits
system.cpu.dcache.WriteReq_hits::total       26061347                       # number of WriteReq hits
system.cpu.dcache.WriteReq_misses::.cpu.data       908807                       # number of WriteReq misses
system.cpu.dcache.WriteReq_misses::total       908807                       # number of WriteReq misses
system.cpu.dcache.WriteReq_miss_latency::.cpu.data  54647373500                       # number of WriteReq miss cycles
system.cpu.dcache.WriteReq_miss_latency::total  54647373500                       # number of WriteReq miss cycles
system.cpu.dcache.WriteReq_accesses::.cpu.data     26970154                       # number of WriteReq accesses(hits+misses)
system.cpu.dcache.WriteReq_accesses::total     26970154                       # number of WriteReq accesses(hits+misses)
system.cpu.dcache.WriteReq_miss_rate::.cpu.data     0.033697                       # miss rate for WriteReq accesses
system.cpu.dcache.WriteReq_miss_rate::total     0.033697                       # miss rate for WriteReq accesses
system.cpu.dcache.WriteReq_avg_miss_latency::.cpu.data 60130.889727                       # average WriteReq miss latency
system.cpu.dcache.WriteReq_avg_miss_latency::total 60130.889727                       # average WriteReq miss latency
system.cpu.dcache.WriteReq_mshr_hits::.cpu.data       445726                       # number of WriteReq MSHR hits
system.cpu.dcache.WriteReq_mshr_hits::total       445726                       # number of WriteReq MSHR hits
system.cpu.dcache.WriteReq_mshr_misses::.cpu.data       463081                       # number of WriteReq MSHR misses
system.cpu.dcache.WriteReq_mshr_misses::total       463081                       # number of WriteReq MSHR misses
system.cpu.dcache.WriteReq_mshr_uncacheable::.cpu.data          415                       # number of WriteReq MSHR uncacheable
system.cpu.dcache.WriteReq_mshr_uncacheable::total          415                       # number of WriteReq MSHR uncacheable
system.cpu.dcache.WriteReq_mshr_miss_latency::.cpu.data  26944072500                       # number of WriteReq MSHR miss cycles
system.cpu.dcache.WriteReq_mshr_miss_latency::total  26944072500                       # number of WriteReq MSHR miss cycles
system.cpu.dcache.WriteReq_mshr_miss_rate::.cpu.data     0.017170                       # mshr miss rate for WriteReq accesses
system.cpu.dcache.WriteReq_mshr_miss_rate::total     0.017170                       # mshr miss rate for WriteReq accesses
system.cpu.dcache.WriteReq_avg_mshr_miss_latency::.cpu.data 58184.361915                       # average WriteReq mshr miss latency
system.cpu.dcache.WriteReq_avg_mshr_miss_latency::total 58184.361915                       # average WriteReq mshr miss latency
system.cpu.dcache.LoadLockedReq_hits::.cpu.data        71433                       # number of LoadLockedReq hits
system.cpu.dcache.LoadLockedReq_hits::total        71433                       # number of LoadLockedReq hits
system.cpu.dcache.LoadLockedReq_misses::.cpu.data         5234                       # number of LoadLockedReq misses
system.cpu.dcache.LoadLockedReq_misses::total         5234                       # number of LoadLockedReq misses
system.cpu.dcache.LoadLockedReq_miss_latency::.cpu.data    377162500                       # number of LoadLockedReq miss cycles
system.cpu.dcache.LoadLockedReq_miss_latency::total    377162500                       # number of LoadLockedReq miss cycles
system.cpu.dcache.LoadLockedReq_accesses::.cpu.data        76667                       # number of LoadLockedReq accesses(hits+misses)
system.cpu.dcache.LoadLockedReq_accesses::total        76667                       # number of LoadLockedReq accesses(hits+misses)
system.cpu.dcache.LoadLockedReq_miss_rate::.cpu.data     0.068269                       # miss rate for LoadLockedReq accesses
system.cpu.dcache.LoadLockedReq_miss_rate::total     0.068269                       # miss rate for LoadLockedReq accesses
system.cpu.dcache.LoadLockedReq_avg_miss_latency::.cpu.data 72060.087887                       # average LoadLockedReq miss latency
system.cpu.dcache.LoadLockedReq_avg_miss_latency::total 72060.087887                       # average LoadLockedReq miss latency
system.cpu.dcache.LoadLockedReq_mshr_misses::.cpu.data         5234                       # number of LoadLockedReq MSHR misses
system.cpu.dcache.LoadLockedReq_mshr_misses::total         5234                       # number of LoadLockedReq MSHR misses
system.cpu.dcache.LoadLockedReq_mshr_miss_latency::.cpu.data    371928500                       # number of LoadLockedReq MSHR miss cycles
system.cpu.dcache.LoadLockedReq_mshr_miss_latency::total    371928500                       # number of LoadLockedReq MSHR miss cycles
system.cpu.dcache.LoadLockedReq_mshr_miss_rate::.cpu.data     0.068269                       # mshr miss rate for LoadLockedReq accesses
system.cpu.dcache.LoadLockedReq_mshr_miss_rate::total     0.068269                       # mshr miss rate for LoadLockedReq accesses
system.cpu.dcache.LoadLockedReq_avg_mshr_miss_latency::.cpu.data 71060.087887                       # average LoadLockedReq mshr miss latency
system.cpu.dcache.LoadLockedReq_avg_mshr_miss_latency::total 71060.087887                       # average LoadLockedReq mshr miss latency
system.cpu.dcache.StoreCondReq_hits::.cpu.data        76554                       # number of StoreCondReq hits
system.cpu.dcache.StoreCondReq_hits::total        76554                       # number of StoreCondReq hits
system.cpu.dcache.StoreCondReq_accesses::.cpu.data        76554                       # number of StoreCondReq accesses(hits+misses)
system.cpu.dcache.StoreCondReq_accesses::total        76554                       # number of StoreCondReq accesses(hits+misses)
system.cpu.dcache.tags.pwrStateResidencyTicks::UNDEFINED 404891531000                       # Cumulative time (in ticks) in various power states
system.cpu.dcache.tags.tagsinuse                 1024                       # Cycle average of tags in use
system.cpu.dcache.tags.total_refs           120245391                       # Total number of references to valid blocks.
system.cpu.dcache.tags.sampled_refs           1188437                       # Sample count of references to valid blocks.
system.cpu.dcache.tags.avg_refs            101.179441                       # Average number of references to valid blocks.
system.cpu.dcache.tags.warmup_cycle                 0                       # Cycle when the warmup percentage was hit.
system.cpu.dcache.tags.occ_blocks::.cpu.data         1024                       # Average occupied blocks per requestor
system.cpu.dcache.tags.occ_percent::.cpu.data            1                       # Average percentage of cache occupancy
system.cpu.dcache.tags.occ_percent::total            1                       # Average percentage of cache occupancy
system.cpu.dcache.tags.occ_task_id_blocks::1024         1024                       # Occupied blocks per task id
system.cpu.dcache.tags.age_task_id_blocks_1024::0           11                       # Occupied blocks per task id
system.cpu.dcache.tags.age_task_id_blocks_1024::1           92                       # Occupied blocks per task id
system.cpu.dcache.tags.age_task_id_blocks_1024::2          911                       # Occupied blocks per task id
system.cpu.dcache.tags.age_task_id_blocks_1024::3           10                       # Occupied blocks per task id
system.cpu.dcache.tags.occ_task_id_percent::1024            1                       # Percentage of cache occupancy per task id
system.cpu.dcache.tags.tag_accesses         241917993                       # Number of tag accesses
system.cpu.dcache.tags.data_accesses        241917993                       # Number of data accesses

---------- End Simulation Statistics   ----------
