
---------- Begin Simulation Statistics ----------
final_tick                               2541679791500                       # Number of ticks from beginning of simulation (restored from checkpoints and never reset)
host_inst_rate                                 195020                       # Simulator instruction rate (inst/s)
host_mem_usage                                 748868                       # Number of bytes of host memory used
host_op_rate                                   195018                       # Simulator op (including micro ops) rate (op/s)
host_seconds                                    21.51                       # Real time elapsed on the host
host_tick_rate                              542617992                       # Simulator tick rate (ticks/s)
sim_freq                                 1000000000000                       # Frequency of simulated ticks
sim_insts                                     4194201                       # Number of instructions simulated
sim_ops                                       4194201                       # Number of ops (including micro ops) simulated
sim_seconds                                  0.011670                       # Number of seconds simulated
sim_ticks                                 11669946500                       # Number of ticks simulated
system.cpu.branchPred.BTBCorrect                    0                       # Number of correct BTB predictions (this stat may not work properly.
system.cpu.branchPred.BTBHitPct             60.663492                       # BTB Hit Percentage
system.cpu.branchPred.BTBHits                  328309                       # Number of BTB hits
system.cpu.branchPred.BTBLookups               541197                       # Number of BTB lookups
system.cpu.branchPred.RASInCorrect               2651                       # Number of incorrect RAS predictions.
system.cpu.branchPred.condIncorrect             57356                       # Number of conditional branches incorrect
system.cpu.branchPred.condPredicted            859554                       # Number of conditional branches predicted
system.cpu.branchPred.indirectHits              48626                       # Number of indirect target hits.
system.cpu.branchPred.indirectLookups          177547                       # Number of indirect predictor lookups.
system.cpu.branchPred.indirectMisses           128921                       # Number of indirect misses.
system.cpu.branchPred.lookups                 1031816                       # Number of BP lookups
system.cpu.branchPred.loop_predictor.loopPredictorCorrect       636382                       # Number of times the loop predictor is the provider and the prediction is correct
system.cpu.branchPred.loop_predictor.loopPredictorWrong       144767                       # Number of times the loop predictor is the provider and the prediction is wrong
system.cpu.branchPred.tage.bimodalAltMatchProviderCorrect         1725                       # Number of times TAGE Alt Match is the bimodal and it is the provider and the prediction is correct
system.cpu.branchPred.tage.bimodalAltMatchProviderWrong          704                       # Number of times TAGE Alt Match is the bimodal and it is the provider and the prediction is wrong
system.cpu.branchPred.tage.tageAltMatchProvider::0       116121                       # TAGE provider for alt match
system.cpu.branchPred.tage.tageAltMatchProvider::1        16995                       # TAGE provider for alt match
system.cpu.branchPred.tage.tageAltMatchProvider::2        15740                       # TAGE provider for alt match
system.cpu.branchPred.tage.tageAltMatchProvider::3        27406                       # TAGE provider for alt match
system.cpu.branchPred.tage.tageAltMatchProvider::4        16899                       # TAGE provider for alt match
system.cpu.branchPred.tage.tageAltMatchProvider::5        12582                       # TAGE provider for alt match
system.cpu.branchPred.tage.tageAltMatchProvider::6         3647                       # TAGE provider for alt match
system.cpu.branchPred.tage.tageAltMatchProvider::7         6604                       # TAGE provider for alt match
system.cpu.branchPred.tage.tageAltMatchProvider::8         1930                       # TAGE provider for alt match
system.cpu.branchPred.tage.tageAltMatchProvider::9          282                       # TAGE provider for alt match
system.cpu.branchPred.tage.tageAltMatchProvider::10          179                       # TAGE provider for alt match
system.cpu.branchPred.tage.tageAltMatchProvider::11          255                       # TAGE provider for alt match
system.cpu.branchPred.tage.tageAltMatchProvider::12            0                       # TAGE provider for alt match
system.cpu.branchPred.tage.tageAltMatchProviderCorrect         3853                       # Number of times TAGE Alt Match is the provider and the prediction is correct
system.cpu.branchPred.tage.tageAltMatchProviderWouldHaveHit         4290                       # Number of times TAGE Longest Match is the provider, the prediction is wrong and Alt Match prediction was correct
system.cpu.branchPred.tage.tageAltMatchProviderWrong         2099                       # Number of times TAGE Alt Match is the provider and the prediction is wrong
system.cpu.branchPred.tage.tageBimodalProviderCorrect       552935                       # Number of times there are no hits on the TAGE tables and the bimodal prediction is correct
system.cpu.branchPred.tage.tageBimodalProviderWrong         7145                       # Number of times there are no hits on the TAGE tables and the bimodal prediction is wrong
system.cpu.branchPred.tage.tageLongestMatchProvider::0            0                       # TAGE provider for longest match
system.cpu.branchPred.tage.tageLongestMatchProvider::1        47497                       # TAGE provider for longest match
system.cpu.branchPred.tage.tageLongestMatchProvider::2        35248                       # TAGE provider for longest match
system.cpu.branchPred.tage.tageLongestMatchProvider::3        32267                       # TAGE provider for longest match
system.cpu.branchPred.tage.tageLongestMatchProvider::4        28021                       # TAGE provider for longest match
system.cpu.branchPred.tage.tageLongestMatchProvider::5        34953                       # TAGE provider for longest match
system.cpu.branchPred.tage.tageLongestMatchProvider::6        11745                       # TAGE provider for longest match
system.cpu.branchPred.tage.tageLongestMatchProvider::7        11285                       # TAGE provider for longest match
system.cpu.branchPred.tage.tageLongestMatchProvider::8        13946                       # TAGE provider for longest match
system.cpu.branchPred.tage.tageLongestMatchProvider::9         2526                       # TAGE provider for longest match
system.cpu.branchPred.tage.tageLongestMatchProvider::10          658                       # TAGE provider for longest match
system.cpu.branchPred.tage.tageLongestMatchProvider::11          216                       # TAGE provider for longest match
system.cpu.branchPred.tage.tageLongestMatchProvider::12          278                       # TAGE provider for longest match
system.cpu.branchPred.tage.tageLongestMatchProviderCorrect       201612                       # Number of times TAGE Longest Match is the provider and the prediction is correct
system.cpu.branchPred.tage.tageLongestMatchProviderWouldHaveHit         1813                       # Number of times TAGE Alt Match is the provider, the prediction is wrong and Longest Match prediction was correct
system.cpu.branchPred.tage.tageLongestMatchProviderWrong        11076                       # Number of times TAGE Longest Match is the provider and the prediction is wrong
system.cpu.branchPred.usedRAS                   63046                       # Number of times the RAS was used to get a target.
system.cpu.branchPredindirectMispredicted        25883                       # Number of mispredicted indirect branches.
system.cpu.committedInsts                     4194201                       # Number of instructions committed
system.cpu.committedOps                       4194201                       # Number of ops (including micro ops) committed
system.cpu.cpi                               5.561518                       # CPI: cycles per instruction
system.cpu.discardedOps                        188320                       # Number of ops (including micro ops) which were discarded before commit
system.cpu.dtb.data_accesses                   606553                       # DTB accesses
system.cpu.dtb.data_acv                           131                       # DTB access violations
system.cpu.dtb.data_hits                      1449998                       # DTB hits
system.cpu.dtb.data_misses                       7564                       # DTB misses
system.cpu.dtb.fetch_accesses                       0                       # ITB accesses
system.cpu.dtb.fetch_acv                            0                       # ITB acv
system.cpu.dtb.fetch_hits                           0                       # ITB hits
system.cpu.dtb.fetch_misses                         0                       # ITB misses
system.cpu.dtb.read_accesses                   405336                       # DTB read accesses
system.cpu.dtb.read_acv                            43                       # DTB read access violations
system.cpu.dtb.read_hits                       848003                       # DTB read hits
system.cpu.dtb.read_misses                       6754                       # DTB read misses
system.cpu.dtb.write_accesses                  201217                       # DTB write accesses
system.cpu.dtb.write_acv                           88                       # DTB write access violations
system.cpu.dtb.write_hits                      601995                       # DTB write hits
system.cpu.dtb.write_misses                       810                       # DTB write misses
system.cpu.fetch2.amo_instructions                  0                       # Number of memory atomic instructions successfully decoded
system.cpu.fetch2.fp_instructions               18081                       # Number of floating point instructions successfully decoded
system.cpu.fetch2.int_instructions            3387073                       # Number of integer instructions successfully decoded
system.cpu.fetch2.load_instructions           1024845                       # Number of memory load instructions successfully decoded
system.cpu.fetch2.store_instructions           653983                       # Number of memory store instructions successfully decoded
system.cpu.fetch2.vec_instructions                  0                       # Number of SIMD instructions successfully decoded
system.cpu.idleCycles                        16654692                       # Total number of cycles that the object has spent stopped
system.cpu.ipc                               0.179807                       # IPC: instructions per cycle
system.cpu.itb.data_accesses                        0                       # DTB accesses
system.cpu.itb.data_acv                             0                       # DTB access violations
system.cpu.itb.data_hits                            0                       # DTB hits
system.cpu.itb.data_misses                          0                       # DTB misses
system.cpu.itb.fetch_accesses                  891511                       # ITB accesses
system.cpu.itb.fetch_acv                          523                       # ITB acv
system.cpu.itb.fetch_hits                      884479                       # ITB hits
system.cpu.itb.fetch_misses                      7032                       # ITB misses
system.cpu.itb.read_accesses                        0                       # DTB read accesses
system.cpu.itb.read_acv                             0                       # DTB read access violations
system.cpu.itb.read_hits                            0                       # DTB read hits
system.cpu.itb.read_misses                          0                       # DTB read misses
system.cpu.itb.write_accesses                       0                       # DTB write accesses
system.cpu.itb.write_acv                            0                       # DTB write access violations
system.cpu.itb.write_hits                           0                       # DTB write hits
system.cpu.itb.write_misses                         0                       # DTB write misses
system.cpu.kern.callpal::swpctx                   574      9.46%      9.46% # number of callpals executed
system.cpu.kern.callpal::tbi                       25      0.41%      9.88% # number of callpals executed
system.cpu.kern.callpal::swpipl                  4202     69.28%     79.16% # number of callpals executed
system.cpu.kern.callpal::rdps                      48      0.79%     79.95% # number of callpals executed
system.cpu.kern.callpal::wrusp                      4      0.07%     80.02% # number of callpals executed
system.cpu.kern.callpal::rdusp                      3      0.05%     80.07% # number of callpals executed
system.cpu.kern.callpal::rti                      896     14.77%     94.84% # number of callpals executed
system.cpu.kern.callpal::callsys                  235      3.87%     98.71% # number of callpals executed
system.cpu.kern.callpal::imb                       78      1.29%    100.00% # number of callpals executed
system.cpu.kern.callpal::total                   6065                       # number of callpals executed
system.cpu.kern.inst.arm                            0                       # number of arm instructions executed
system.cpu.kern.inst.hwrei                      14408                       # number of hwrei instructions executed
system.cpu.kern.inst.quiesce                        9                       # number of quiesce instructions executed
system.cpu.kern.ipl_count::0                     2425     47.41%     47.41% # number of times we switched to this ipl
system.cpu.kern.ipl_count::21                       5      0.10%     47.51% # number of times we switched to this ipl
system.cpu.kern.ipl_count::22                      12      0.23%     47.74% # number of times we switched to this ipl
system.cpu.kern.ipl_count::31                    2673     52.26%    100.00% # number of times we switched to this ipl
system.cpu.kern.ipl_count::total                 5115                       # number of times we switched to this ipl
system.cpu.kern.ipl_good::0                      2412     49.82%     49.82% # number of times we switched to this ipl from a different ipl
system.cpu.kern.ipl_good::21                        5      0.10%     49.93% # number of times we switched to this ipl from a different ipl
system.cpu.kern.ipl_good::22                       12      0.25%     50.18% # number of times we switched to this ipl from a different ipl
system.cpu.kern.ipl_good::31                     2412     49.82%    100.00% # number of times we switched to this ipl from a different ipl
system.cpu.kern.ipl_good::total                  4841                       # number of times we switched to this ipl from a different ipl
system.cpu.kern.ipl_ticks::0              10762600500     92.19%     92.19% # number of cycles we spent at this ipl
system.cpu.kern.ipl_ticks::21                 9236500      0.08%     92.27% # number of cycles we spent at this ipl
system.cpu.kern.ipl_ticks::22                17813000      0.15%     92.42% # number of cycles we spent at this ipl
system.cpu.kern.ipl_ticks::31               884833000      7.58%    100.00% # number of cycles we spent at this ipl
system.cpu.kern.ipl_ticks::total          11674483000                       # number of cycles we spent at this ipl
system.cpu.kern.ipl_used::0                  0.994639                       # fraction of swpipl calls that actually changed the ipl
system.cpu.kern.ipl_used::21                        1                       # fraction of swpipl calls that actually changed the ipl
system.cpu.kern.ipl_used::22                        1                       # fraction of swpipl calls that actually changed the ipl
system.cpu.kern.ipl_used::31                 0.902357                       # fraction of swpipl calls that actually changed the ipl
system.cpu.kern.ipl_used::total              0.946432                       # fraction of swpipl calls that actually changed the ipl
system.cpu.kern.mode_good::kernel                 871                      
system.cpu.kern.mode_good::user                   871                      
system.cpu.kern.mode_good::idle                     0                      
system.cpu.kern.mode_switch::kernel              1470                       # number of protection mode switches
system.cpu.kern.mode_switch::user                 871                       # number of protection mode switches
system.cpu.kern.mode_switch::idle                   0                       # number of protection mode switches
system.cpu.kern.mode_switch_good::kernel     0.592517                       # fraction of useful protection mode switches
system.cpu.kern.mode_switch_good::user              1                       # fraction of useful protection mode switches
system.cpu.kern.mode_switch_good::idle            nan                       # fraction of useful protection mode switches
system.cpu.kern.mode_switch_good::total      0.744126                       # fraction of useful protection mode switches
system.cpu.kern.mode_ticks::kernel         7931405000     67.94%     67.94% # number of ticks spent at the given mode
system.cpu.kern.mode_ticks::user           3743078000     32.06%    100.00% # number of ticks spent at the given mode
system.cpu.kern.mode_ticks::idle                    0      0.00%    100.00% # number of ticks spent at the given mode
system.cpu.kern.swap_context                      574                       # number of times the context was actually changed
system.cpu.numCycles                         23326124                       # number of cpu cycles simulated
system.cpu.numFetchSuspends                         9                       # Number of times Execute suspended instruction fetching
system.cpu.numWorkItemsCompleted                    0                       # number of work items this cpu completed
system.cpu.numWorkItemsStarted                      0                       # number of work items this cpu started
system.cpu.op_class_0::No_OpClass               85404      2.04%      2.04% # Class of committed instruction
system.cpu.op_class_0::IntAlu                 2540375     60.57%     62.60% # Class of committed instruction
system.cpu.op_class_0::IntMult                   3673      0.09%     62.69% # Class of committed instruction
system.cpu.op_class_0::IntDiv                       0      0.00%     62.69% # Class of committed instruction
system.cpu.op_class_0::FloatAdd                  8286      0.20%     62.89% # Class of committed instruction
system.cpu.op_class_0::FloatCmp                     0      0.00%     62.89% # Class of committed instruction
system.cpu.op_class_0::FloatCvt                     0      0.00%     62.89% # Class of committed instruction
system.cpu.op_class_0::FloatMult                    0      0.00%     62.89% # Class of committed instruction
system.cpu.op_class_0::FloatMultAcc                 0      0.00%     62.89% # Class of committed instruction
system.cpu.op_class_0::FloatDiv                  1593      0.04%     62.93% # Class of committed instruction
system.cpu.op_class_0::FloatMisc                    0      0.00%     62.93% # Class of committed instruction
system.cpu.op_class_0::FloatSqrt                    0      0.00%     62.93% # Class of committed instruction
system.cpu.op_class_0::SimdAdd                      0      0.00%     62.93% # Class of committed instruction
system.cpu.op_class_0::SimdAddAcc                   0      0.00%     62.93% # Class of committed instruction
system.cpu.op_class_0::SimdAlu                      0      0.00%     62.93% # Class of committed instruction
system.cpu.op_class_0::SimdCmp                      0      0.00%     62.93% # Class of committed instruction
system.cpu.op_class_0::SimdCvt                      0      0.00%     62.93% # Class of committed instruction
system.cpu.op_class_0::SimdMisc                     0      0.00%     62.93% # Class of committed instruction
system.cpu.op_class_0::SimdMult                     0      0.00%     62.93% # Class of committed instruction
system.cpu.op_class_0::SimdMultAcc                  0      0.00%     62.93% # Class of committed instruction
system.cpu.op_class_0::SimdShift                    0      0.00%     62.93% # Class of committed instruction
system.cpu.op_class_0::SimdShiftAcc                 0      0.00%     62.93% # Class of committed instruction
system.cpu.op_class_0::SimdDiv                      0      0.00%     62.93% # Class of committed instruction
system.cpu.op_class_0::SimdSqrt                     0      0.00%     62.93% # Class of committed instruction
system.cpu.op_class_0::SimdFloatAdd                 0      0.00%     62.93% # Class of committed instruction
system.cpu.op_class_0::SimdFloatAlu                 0      0.00%     62.93% # Class of committed instruction
system.cpu.op_class_0::SimdFloatCmp                 0      0.00%     62.93% # Class of committed instruction
system.cpu.op_class_0::SimdFloatCvt                 0      0.00%     62.93% # Class of committed instruction
system.cpu.op_class_0::SimdFloatDiv                 0      0.00%     62.93% # Class of committed instruction
system.cpu.op_class_0::SimdFloatMisc                0      0.00%     62.93% # Class of committed instruction
system.cpu.op_class_0::SimdFloatMult                0      0.00%     62.93% # Class of committed instruction
system.cpu.op_class_0::SimdFloatMultAcc             0      0.00%     62.93% # Class of committed instruction
system.cpu.op_class_0::SimdFloatSqrt                0      0.00%     62.93% # Class of committed instruction
system.cpu.op_class_0::SimdReduceAdd                0      0.00%     62.93% # Class of committed instruction
system.cpu.op_class_0::SimdReduceAlu                0      0.00%     62.93% # Class of committed instruction
system.cpu.op_class_0::SimdReduceCmp                0      0.00%     62.93% # Class of committed instruction
system.cpu.op_class_0::SimdFloatReduceAdd            0      0.00%     62.93% # Class of committed instruction
system.cpu.op_class_0::SimdFloatReduceCmp            0      0.00%     62.93% # Class of committed instruction
system.cpu.op_class_0::SimdAes                      0      0.00%     62.93% # Class of committed instruction
system.cpu.op_class_0::SimdAesMix                   0      0.00%     62.93% # Class of committed instruction
system.cpu.op_class_0::SimdSha1Hash                 0      0.00%     62.93% # Class of committed instruction
system.cpu.op_class_0::SimdSha1Hash2                0      0.00%     62.93% # Class of committed instruction
system.cpu.op_class_0::SimdSha256Hash               0      0.00%     62.93% # Class of committed instruction
system.cpu.op_class_0::SimdSha256Hash2              0      0.00%     62.93% # Class of committed instruction
system.cpu.op_class_0::SimdShaSigma2                0      0.00%     62.93% # Class of committed instruction
system.cpu.op_class_0::SimdShaSigma3                0      0.00%     62.93% # Class of committed instruction
system.cpu.op_class_0::SimdPredAlu                  0      0.00%     62.93% # Class of committed instruction
system.cpu.op_class_0::MemRead                 838941     20.00%     82.93% # Class of committed instruction
system.cpu.op_class_0::MemWrite                592366     14.12%     97.05% # Class of committed instruction
system.cpu.op_class_0::FloatMemRead              9988      0.24%     97.29% # Class of committed instruction
system.cpu.op_class_0::FloatMemWrite             8788      0.21%     97.50% # Class of committed instruction
system.cpu.op_class_0::IprAccess               104787      2.50%    100.00% # Class of committed instruction
system.cpu.op_class_0::InstPrefetch                 0      0.00%    100.00% # Class of committed instruction
system.cpu.op_class_0::total                  4194201                       # Class of committed instruction
system.cpu.quiesceCycles                        13769                       # Total number of cycles that CPU has spent quiesced or waiting for an interrupt
system.cpu.tickCycles                         6671432                       # Number of cycles that the object actually ticked
system.disk0.dma_read_bytes                         0                       # Number of bytes transfered via DMA reads (not PRD).
system.disk0.dma_read_full_pages                    0                       # Number of full page size DMA reads (not PRD).
system.disk0.dma_read_txs                           0                       # Number of DMA read transactions (not PRD).
system.disk0.dma_write_bytes                    12288                       # Number of bytes transfered via DMA writes.
system.disk0.dma_write_full_pages                   0                       # Number of full page size DMA writes.
system.disk0.dma_write_txs                          3                       # Number of DMA write transactions.
system.disk2.dma_read_bytes                         0                       # Number of bytes transfered via DMA reads (not PRD).
system.disk2.dma_read_full_pages                    0                       # Number of full page size DMA reads (not PRD).
system.disk2.dma_read_txs                           0                       # Number of DMA read transactions (not PRD).
system.disk2.dma_write_bytes                        0                       # Number of bytes transfered via DMA writes.
system.disk2.dma_write_full_pages                   0                       # Number of full page size DMA writes.
system.disk2.dma_write_txs                          0                       # Number of DMA write transactions.
system.membus.snoop_filter.hit_multi_requests          432                       # Number of requests hitting in the snoop filter with multiple (>1) holders of the requested data.
system.membus.snoop_filter.hit_multi_snoops            0                       # Number of snoops hitting in the snoop filter with multiple (>1) holders of the requested data.
system.membus.snoop_filter.hit_single_requests       154824                       # Number of requests hitting in the snoop filter with a single holder of the requested data.
system.membus.snoop_filter.hit_single_snoops            0                       # Number of snoops hitting in the snoop filter with a single holder of the requested data.
system.membus.snoop_filter.tot_requests        311250                       # Total number of requests made to the snoop filter.
system.membus.snoop_filter.tot_snoops               0                       # Total number of snoops made to the snoop filter.
system.tsunami.ethernet.coalescedRxDesc           nan                       # average number of RxDesc's coalesced into each post
system.tsunami.ethernet.coalescedRxIdle           nan                       # average number of RxIdle's coalesced into each post
system.tsunami.ethernet.coalescedRxOk             nan                       # average number of RxOk's coalesced into each post
system.tsunami.ethernet.coalescedRxOrn            nan                       # average number of RxOrn's coalesced into each post
system.tsunami.ethernet.coalescedSwi              nan                       # average number of Swi's coalesced into each post
system.tsunami.ethernet.coalescedTotal            nan                       # average number of interrupts coalesced into each post
system.tsunami.ethernet.coalescedTxDesc           nan                       # average number of TxDesc's coalesced into each post
system.tsunami.ethernet.coalescedTxIdle           nan                       # average number of TxIdle's coalesced into each post
system.tsunami.ethernet.coalescedTxOk             nan                       # average number of TxOk's coalesced into each post
system.tsunami.ethernet.descDMAReads                0                       # Number of descriptors the device read w/ DMA
system.tsunami.ethernet.descDMAWrites               0                       # Number of descriptors the device wrote w/ DMA
system.tsunami.ethernet.descDmaReadBytes            0                       # number of descriptor bytes read w/ DMA
system.tsunami.ethernet.descDmaWriteBytes            0                       # number of descriptor bytes write w/ DMA
system.tsunami.ethernet.droppedPackets              0                       # number of packets dropped
system.tsunami.ethernet.postedInterrupts            0                       # number of posts to CPU
system.tsunami.ethernet.postedRxDesc                0                       # number of RxDesc interrupts posted to CPU
system.tsunami.ethernet.postedRxIdle                0                       # number of rxIdle interrupts posted to CPU
system.tsunami.ethernet.postedRxOk                  0                       # number of RxOk interrupts posted to CPU
system.tsunami.ethernet.postedRxOrn                 0                       # number of RxOrn posted to CPU
system.tsunami.ethernet.postedSwi                   0                       # number of software interrupts posted to CPU
system.tsunami.ethernet.postedTxDesc                0                       # number of TxDesc interrupts posted to CPU
system.tsunami.ethernet.postedTxIdle                0                       # number of TxIdle interrupts posted to CPU
system.tsunami.ethernet.postedTxOk                  0                       # number of TxOk interrupts posted to CPU
system.tsunami.ethernet.totalRxDesc                 0                       # total number of RxDesc written to ISR
system.tsunami.ethernet.totalRxIdle                 0                       # total number of RxIdle written to ISR
system.tsunami.ethernet.totalRxOk                   0                       # total number of RxOk written to ISR
system.tsunami.ethernet.totalRxOrn                  0                       # total number of RxOrn written to ISR
system.tsunami.ethernet.totalSwi                    0                       # total number of Swi written to ISR
system.tsunami.ethernet.totalTxDesc                 0                       # total number of TxDesc written to ISR
system.tsunami.ethernet.totalTxIdle                 0                       # total number of TxIdle written to ISR
system.tsunami.ethernet.totalTxOk                   0                       # total number of TxOk written to ISR
system.bridge.pwrStateResidencyTicks::UNDEFINED 2541679791500                       # Cumulative time (in ticks) in various power states
system.voltage_domain.voltage                       1                       # Voltage in Volts
system.iocache.pwrStateResidencyTicks::UNDEFINED 2541679791500                       # Cumulative time (in ticks) in various power states
system.iocache.demand_misses::.tsunami.ide          195                       # number of demand (read+write) misses
system.iocache.demand_misses::total               195                       # number of demand (read+write) misses
system.iocache.overall_misses::.tsunami.ide          195                       # number of overall misses
system.iocache.overall_misses::total              195                       # number of overall misses
system.iocache.demand_miss_latency::.tsunami.ide     22735456                       # number of demand (read+write) miss cycles
system.iocache.demand_miss_latency::total     22735456                       # number of demand (read+write) miss cycles
system.iocache.overall_miss_latency::.tsunami.ide     22735456                       # number of overall miss cycles
system.iocache.overall_miss_latency::total     22735456                       # number of overall miss cycles
system.iocache.demand_accesses::.tsunami.ide          195                       # number of demand (read+write) accesses
system.iocache.demand_accesses::total             195                       # number of demand (read+write) accesses
system.iocache.overall_accesses::.tsunami.ide          195                       # number of overall (read+write) accesses
system.iocache.overall_accesses::total            195                       # number of overall (read+write) accesses
system.iocache.demand_miss_rate::.tsunami.ide            1                       # miss rate for demand accesses
system.iocache.demand_miss_rate::total              1                       # miss rate for demand accesses
system.iocache.overall_miss_rate::.tsunami.ide            1                       # miss rate for overall accesses
system.iocache.overall_miss_rate::total             1                       # miss rate for overall accesses
system.iocache.demand_avg_miss_latency::.tsunami.ide 116592.082051                       # average overall miss latency
system.iocache.demand_avg_miss_latency::total 116592.082051                       # average overall miss latency
system.iocache.overall_avg_miss_latency::.tsunami.ide 116592.082051                       # average overall miss latency
system.iocache.overall_avg_miss_latency::total 116592.082051                       # average overall miss latency
system.iocache.blocked_cycles::no_mshrs             0                       # number of cycles access was blocked
system.iocache.blocked_cycles::no_targets            0                       # number of cycles access was blocked
system.iocache.blocked::no_mshrs                    0                       # number of cycles access was blocked
system.iocache.blocked::no_targets                  0                       # number of cycles access was blocked
system.iocache.avg_blocked_cycles::no_mshrs          nan                       # average number of cycles each access was blocked
system.iocache.avg_blocked_cycles::no_targets          nan                       # average number of cycles each access was blocked
system.iocache.writebacks::.writebacks            176                       # number of writebacks
system.iocache.writebacks::total                  176                       # number of writebacks
system.iocache.demand_mshr_misses::.tsunami.ide          195                       # number of demand (read+write) MSHR misses
system.iocache.demand_mshr_misses::total          195                       # number of demand (read+write) MSHR misses
system.iocache.overall_mshr_misses::.tsunami.ide          195                       # number of overall MSHR misses
system.iocache.overall_mshr_misses::total          195                       # number of overall MSHR misses
system.iocache.demand_mshr_miss_latency::.tsunami.ide     12972483                       # number of demand (read+write) MSHR miss cycles
system.iocache.demand_mshr_miss_latency::total     12972483                       # number of demand (read+write) MSHR miss cycles
system.iocache.overall_mshr_miss_latency::.tsunami.ide     12972483                       # number of overall MSHR miss cycles
system.iocache.overall_mshr_miss_latency::total     12972483                       # number of overall MSHR miss cycles
system.iocache.demand_mshr_miss_rate::.tsunami.ide            1                       # mshr miss rate for demand accesses
system.iocache.demand_mshr_miss_rate::total            1                       # mshr miss rate for demand accesses
system.iocache.overall_mshr_miss_rate::.tsunami.ide            1                       # mshr miss rate for overall accesses
system.iocache.overall_mshr_miss_rate::total            1                       # mshr miss rate for overall accesses
system.iocache.demand_avg_mshr_miss_latency::.tsunami.ide 66525.553846                       # average overall mshr miss latency
system.iocache.demand_avg_mshr_miss_latency::total 66525.553846                       # average overall mshr miss latency
system.iocache.overall_avg_mshr_miss_latency::.tsunami.ide 66525.553846                       # average overall mshr miss latency
system.iocache.overall_avg_mshr_miss_latency::total 66525.553846                       # average overall mshr miss latency
system.iocache.replacements                       179                       # number of replacements
system.iocache.ReadReq_misses::.tsunami.ide            3                       # number of ReadReq misses
system.iocache.ReadReq_misses::total                3                       # number of ReadReq misses
system.iocache.ReadReq_miss_latency::.tsunami.ide       349497                       # number of ReadReq miss cycles
system.iocache.ReadReq_miss_latency::total       349497                       # number of ReadReq miss cycles
system.iocache.ReadReq_accesses::.tsunami.ide            3                       # number of ReadReq accesses(hits+misses)
system.iocache.ReadReq_accesses::total              3                       # number of ReadReq accesses(hits+misses)
system.iocache.ReadReq_miss_rate::.tsunami.ide            1                       # miss rate for ReadReq accesses
system.iocache.ReadReq_miss_rate::total             1                       # miss rate for ReadReq accesses
system.iocache.ReadReq_avg_miss_latency::.tsunami.ide       116499                       # average ReadReq miss latency
system.iocache.ReadReq_avg_miss_latency::total       116499                       # average ReadReq miss latency
system.iocache.ReadReq_mshr_misses::.tsunami.ide            3                       # number of ReadReq MSHR misses
system.iocache.ReadReq_mshr_misses::total            3                       # number of ReadReq MSHR misses
system.iocache.ReadReq_mshr_miss_latency::.tsunami.ide       199497                       # number of ReadReq MSHR miss cycles
system.iocache.ReadReq_mshr_miss_latency::total       199497                       # number of ReadReq MSHR miss cycles
system.iocache.ReadReq_mshr_miss_rate::.tsunami.ide            1                       # mshr miss rate for ReadReq accesses
system.iocache.ReadReq_mshr_miss_rate::total            1                       # mshr miss rate for ReadReq accesses
system.iocache.ReadReq_avg_mshr_miss_latency::.tsunami.ide        66499                       # average ReadReq mshr miss latency
system.iocache.ReadReq_avg_mshr_miss_latency::total        66499                       # average ReadReq mshr miss latency
system.iocache.WriteLineReq_misses::.tsunami.ide          192                       # number of WriteLineReq misses
system.iocache.WriteLineReq_misses::total          192                       # number of WriteLineReq misses
system.iocache.WriteLineReq_miss_latency::.tsunami.ide     22385959                       # number of WriteLineReq miss cycles
system.iocache.WriteLineReq_miss_latency::total     22385959                       # number of WriteLineReq miss cycles
system.iocache.WriteLineReq_accesses::.tsunami.ide          192                       # number of WriteLineReq accesses(hits+misses)
system.iocache.WriteLineReq_accesses::total          192                       # number of WriteLineReq accesses(hits+misses)
system.iocache.WriteLineReq_miss_rate::.tsunami.ide            1                       # miss rate for WriteLineReq accesses
system.iocache.WriteLineReq_miss_rate::total            1                       # miss rate for WriteLineReq accesses
system.iocache.WriteLineReq_avg_miss_latency::.tsunami.ide 116593.536458                       # average WriteLineReq miss latency
system.iocache.WriteLineReq_avg_miss_latency::total 116593.536458                       # average WriteLineReq miss latency
system.iocache.WriteLineReq_mshr_misses::.tsunami.ide          192                       # number of WriteLineReq MSHR misses
system.iocache.WriteLineReq_mshr_misses::total          192                       # number of WriteLineReq MSHR misses
system.iocache.WriteLineReq_mshr_miss_latency::.tsunami.ide     12772986                       # number of WriteLineReq MSHR miss cycles
system.iocache.WriteLineReq_mshr_miss_latency::total     12772986                       # number of WriteLineReq MSHR miss cycles
system.iocache.WriteLineReq_mshr_miss_rate::.tsunami.ide            1                       # mshr miss rate for WriteLineReq accesses
system.iocache.WriteLineReq_mshr_miss_rate::total            1                       # mshr miss rate for WriteLineReq accesses
system.iocache.WriteLineReq_avg_mshr_miss_latency::.tsunami.ide 66525.968750                       # average WriteLineReq mshr miss latency
system.iocache.WriteLineReq_avg_mshr_miss_latency::total 66525.968750                       # average WriteLineReq mshr miss latency
system.iocache.tags.pwrStateResidencyTicks::UNDEFINED 2541679791500                       # Cumulative time (in ticks) in various power states
system.iocache.tags.tagsinuse                3.298359                       # Cycle average of tags in use
system.iocache.tags.total_refs                    179                       # Total number of references to valid blocks.
system.iocache.tags.sampled_refs                  179                       # Sample count of references to valid blocks.
system.iocache.tags.avg_refs                        1                       # Average number of references to valid blocks.
system.iocache.tags.warmup_cycle         2539272984000                       # Cycle when the warmup percentage was hit.
system.iocache.tags.occ_blocks::.tsunami.ide     3.298359                       # Average occupied blocks per requestor
system.iocache.tags.occ_percent::.tsunami.ide     0.206147                       # Average percentage of cache occupancy
system.iocache.tags.occ_percent::total       0.206147                       # Average percentage of cache occupancy
system.iocache.tags.occ_task_id_blocks::1023           16                       # Occupied blocks per task id
system.iocache.tags.age_task_id_blocks_1023::3           16                       # Occupied blocks per task id
system.iocache.tags.occ_task_id_percent::1023            1                       # Percentage of cache occupancy per task id
system.iocache.tags.tag_accesses                 1755                       # Number of tag accesses
system.iocache.tags.data_accesses                1755                       # Number of data accesses
system.membus.pwrStateResidencyTicks::UNDEFINED 2541679791500                       # Cumulative time (in ticks) in various power states
system.membus.trans_dist::ReadReq                 108                       # Transaction distribution
system.membus.trans_dist::ReadResp             127359                       # Transaction distribution
system.membus.trans_dist::WriteReq                 99                       # Transaction distribution
system.membus.trans_dist::WriteResp                99                       # Transaction distribution
system.membus.trans_dist::WritebackDirty        34840                       # Transaction distribution
system.membus.trans_dist::WritebackClean        85840                       # Transaction distribution
system.membus.trans_dist::CleanEvict            34121                       # Transaction distribution
system.membus.trans_dist::UpgradeReq               16                       # Transaction distribution
system.membus.trans_dist::ReadExReq             28988                       # Transaction distribution
system.membus.trans_dist::ReadExResp            28988                       # Transaction distribution
system.membus.trans_dist::ReadCleanReq          86430                       # Transaction distribution
system.membus.trans_dist::ReadSharedReq         40823                       # Transaction distribution
system.membus.trans_dist::BadAddressError            2                       # Transaction distribution
system.membus.trans_dist::InvalidateReq           192                       # Transaction distribution
system.membus.pkt_count_system.iocache.mem_side::system.mem_ctrls.port          374                       # Packet count per connected master and slave (bytes)
system.membus.pkt_count_system.iocache.mem_side::total          374                       # Packet count per connected master and slave (bytes)
system.membus.pkt_count_system.cpu.icache.mem_side::system.mem_ctrls.port       258637                       # Packet count per connected master and slave (bytes)
system.membus.pkt_count_system.cpu.icache.mem_side::total       258637                       # Packet count per connected master and slave (bytes)
system.membus.pkt_count_system.cpu.dcache.mem_side::system.bridge.slave          414                       # Packet count per connected master and slave (bytes)
system.membus.pkt_count_system.cpu.dcache.mem_side::system.mem_ctrls.port       208410                       # Packet count per connected master and slave (bytes)
system.membus.pkt_count_system.cpu.dcache.mem_side::system.membus.badaddr_responder.pio            4                       # Packet count per connected master and slave (bytes)
system.membus.pkt_count_system.cpu.dcache.mem_side::total       208828                       # Packet count per connected master and slave (bytes)
system.membus.pkt_count::total                 467839                       # Packet count per connected master and slave (bytes)
system.membus.pkt_size_system.iocache.mem_side::system.mem_ctrls.port        11264                       # Cumulative packet size per connected master and slave (bytes)
system.membus.pkt_size_system.iocache.mem_side::total        11264                       # Cumulative packet size per connected master and slave (bytes)
system.membus.pkt_size_system.cpu.icache.mem_side::system.mem_ctrls.port     11021248                       # Cumulative packet size per connected master and slave (bytes)
system.membus.pkt_size_system.cpu.icache.mem_side::total     11021248                       # Cumulative packet size per connected master and slave (bytes)
system.membus.pkt_size_system.cpu.dcache.mem_side::system.bridge.slave          433                       # Cumulative packet size per connected master and slave (bytes)
system.membus.pkt_size_system.cpu.dcache.mem_side::system.mem_ctrls.port      6686080                       # Cumulative packet size per connected master and slave (bytes)
system.membus.pkt_size_system.cpu.dcache.mem_side::total      6686513                       # Cumulative packet size per connected master and slave (bytes)
system.membus.pkt_size::total                17719025                       # Cumulative packet size per connected master and slave (bytes)
system.membus.snoops                               66                       # Total snoops (count)
system.membus.snoopTraffic                       4224                       # Total snoop traffic (bytes)
system.membus.snoop_fanout::samples            156656                       # Request fanout histogram
system.membus.snoop_fanout::mean             0.002764                       # Request fanout histogram
system.membus.snoop_fanout::stdev            0.052501                       # Request fanout histogram
system.membus.snoop_fanout::underflows              0      0.00%      0.00% # Request fanout histogram
system.membus.snoop_fanout::0                  156223     99.72%     99.72% # Request fanout histogram
system.membus.snoop_fanout::1                     433      0.28%    100.00% # Request fanout histogram
system.membus.snoop_fanout::2                       0      0.00%    100.00% # Request fanout histogram
system.membus.snoop_fanout::3                       0      0.00%    100.00% # Request fanout histogram
system.membus.snoop_fanout::overflows               0      0.00%    100.00% # Request fanout histogram
system.membus.snoop_fanout::min_value               0                       # Request fanout histogram
system.membus.snoop_fanout::max_value               1                       # Request fanout histogram
system.membus.snoop_fanout::total              156656                       # Request fanout histogram
system.membus.reqLayer0.occupancy              355000                       # Layer occupancy (ticks)
system.membus.reqLayer0.utilization               0.0                       # Layer utilization (%)
system.membus.reqLayer1.occupancy           816364030                       # Layer occupancy (ticks)
system.membus.reqLayer1.utilization               7.0                       # Layer utilization (%)
system.membus.reqLayer2.occupancy                3000                       # Layer occupancy (ticks)
system.membus.reqLayer2.utilization               0.0                       # Layer utilization (%)
system.membus.respLayer1.occupancy              17997                       # Layer occupancy (ticks)
system.membus.respLayer1.utilization              0.0                       # Layer utilization (%)
system.membus.respLayer3.occupancy          375537750                       # Layer occupancy (ticks)
system.membus.respLayer3.utilization              3.2                       # Layer utilization (%)
system.membus.badaddr_responder.pwrStateResidencyTicks::UNDEFINED 2541679791500                       # Cumulative time (in ticks) in various power states
system.membus.respLayer2.occupancy          458190000                       # Layer occupancy (ticks)
system.membus.respLayer2.utilization              3.9                       # Layer utilization (%)
system.clk_domain.clock                          1000                       # Clock period in ticks
system.tsunami.fake_uart1.pwrStateResidencyTicks::UNDEFINED 2541679791500                       # Cumulative time (in ticks) in various power states
system.tsunami.fake_uart2.pwrStateResidencyTicks::UNDEFINED 2541679791500                       # Cumulative time (in ticks) in various power states
system.tsunami.fake_uart3.pwrStateResidencyTicks::UNDEFINED 2541679791500                       # Cumulative time (in ticks) in various power states
system.tsunami.fake_uart4.pwrStateResidencyTicks::UNDEFINED 2541679791500                       # Cumulative time (in ticks) in various power states
system.tsunami.fake_ppc.pwrStateResidencyTicks::UNDEFINED 2541679791500                       # Cumulative time (in ticks) in various power states
system.tsunami.cchip.pwrStateResidencyTicks::UNDEFINED 2541679791500                       # Cumulative time (in ticks) in various power states
system.tsunami.io.pwrStateResidencyTicks::UNDEFINED 2541679791500                       # Cumulative time (in ticks) in various power states
system.tsunami.pchip.pwrStateResidencyTicks::UNDEFINED 2541679791500                       # Cumulative time (in ticks) in various power states
system.tsunami.fake_ata1.pwrStateResidencyTicks::UNDEFINED 2541679791500                       # Cumulative time (in ticks) in various power states
system.tsunami.fake_ata0.pwrStateResidencyTicks::UNDEFINED 2541679791500                       # Cumulative time (in ticks) in various power states
system.tsunami.backdoor.pwrStateResidencyTicks::UNDEFINED 2541679791500                       # Cumulative time (in ticks) in various power states
system.tsunami.fake_pnp_read3.pwrStateResidencyTicks::UNDEFINED 2541679791500                       # Cumulative time (in ticks) in various power states
system.tsunami.fake_pnp_read2.pwrStateResidencyTicks::UNDEFINED 2541679791500                       # Cumulative time (in ticks) in various power states
system.tsunami.fake_pnp_read1.pwrStateResidencyTicks::UNDEFINED 2541679791500                       # Cumulative time (in ticks) in various power states
system.tsunami.fake_pnp_read0.pwrStateResidencyTicks::UNDEFINED 2541679791500                       # Cumulative time (in ticks) in various power states
system.tsunami.fake_pnp_read7.pwrStateResidencyTicks::UNDEFINED 2541679791500                       # Cumulative time (in ticks) in various power states
system.tsunami.fake_pnp_read6.pwrStateResidencyTicks::UNDEFINED 2541679791500                       # Cumulative time (in ticks) in various power states
system.tsunami.fake_pnp_read5.pwrStateResidencyTicks::UNDEFINED 2541679791500                       # Cumulative time (in ticks) in various power states
system.tsunami.fake_pnp_read4.pwrStateResidencyTicks::UNDEFINED 2541679791500                       # Cumulative time (in ticks) in various power states
system.tsunami.fake_pnp_write.pwrStateResidencyTicks::UNDEFINED 2541679791500                       # Cumulative time (in ticks) in various power states
system.tsunami.fb.pwrStateResidencyTicks::UNDEFINED 2541679791500                       # Cumulative time (in ticks) in various power states
system.tsunami.fake_pnp_addr.pwrStateResidencyTicks::UNDEFINED 2541679791500                       # Cumulative time (in ticks) in various power states
system.tsunami.fake_OROM.pwrStateResidencyTicks::UNDEFINED 2541679791500                       # Cumulative time (in ticks) in various power states
system.tsunami.uart.pwrStateResidencyTicks::UNDEFINED 2541679791500                       # Cumulative time (in ticks) in various power states
system.tsunami.fake_sm_chip.pwrStateResidencyTicks::UNDEFINED 2541679791500                       # Cumulative time (in ticks) in various power states
system.tsunami.ethernet.pwrStateResidencyTicks::UNDEFINED 2541679791500                       # Cumulative time (in ticks) in various power states
system.tsunami.ide.pwrStateResidencyTicks::UNDEFINED 2541679791500                       # Cumulative time (in ticks) in various power states
system.cpu_voltage_domain.voltage                   1                       # Voltage in Volts
system.mem_ctrls.pwrStateResidencyTicks::UNDEFINED 2541679791500                       # Cumulative time (in ticks) in various power states
system.mem_ctrls.bytes_read::.cpu.inst        5527488                       # Number of bytes read from this memory
system.mem_ctrls.bytes_read::.cpu.data        4467584                       # Number of bytes read from this memory
system.mem_ctrls.bytes_read::total            9995072                       # Number of bytes read from this memory
system.mem_ctrls.bytes_inst_read::.cpu.inst      5527488                       # Number of instructions bytes read from this memory
system.mem_ctrls.bytes_inst_read::total       5527488                       # Number of instructions bytes read from this memory
system.mem_ctrls.bytes_written::.writebacks      2229760                       # Number of bytes written to this memory
system.mem_ctrls.bytes_written::total         2229760                       # Number of bytes written to this memory
system.mem_ctrls.num_reads::.cpu.inst           86367                       # Number of read requests responded to by this memory
system.mem_ctrls.num_reads::.cpu.data           69806                       # Number of read requests responded to by this memory
system.mem_ctrls.num_reads::total              156173                       # Number of read requests responded to by this memory
system.mem_ctrls.num_writes::.writebacks        34840                       # Number of write requests responded to by this memory
system.mem_ctrls.num_writes::total              34840                       # Number of write requests responded to by this memory
system.mem_ctrls.bw_read::.cpu.inst         473651529                       # Total read bandwidth from this memory (bytes/s)
system.mem_ctrls.bw_read::.cpu.data         382828147                       # Total read bandwidth from this memory (bytes/s)
system.mem_ctrls.bw_read::total             856479676                       # Total read bandwidth from this memory (bytes/s)
system.mem_ctrls.bw_inst_read::.cpu.inst    473651529                       # Instruction read bandwidth from this memory (bytes/s)
system.mem_ctrls.bw_inst_read::total        473651529                       # Instruction read bandwidth from this memory (bytes/s)
system.mem_ctrls.bw_write::.writebacks      191068571                       # Write bandwidth from this memory (bytes/s)
system.mem_ctrls.bw_write::total            191068571                       # Write bandwidth from this memory (bytes/s)
system.mem_ctrls.bw_total::.writebacks      191068571                       # Total bandwidth to/from this memory (bytes/s)
system.mem_ctrls.bw_total::.cpu.inst        473651529                       # Total bandwidth to/from this memory (bytes/s)
system.mem_ctrls.bw_total::.cpu.data        382828147                       # Total bandwidth to/from this memory (bytes/s)
system.mem_ctrls.bw_total::total           1047548247                       # Total bandwidth to/from this memory (bytes/s)
system.mem_ctrls.avgPriority_.writebacks::samples    118326.00                       # Average QoS priority value for accepted requests
system.mem_ctrls.avgPriority_.cpu.inst::samples     76462.00                       # Average QoS priority value for accepted requests
system.mem_ctrls.avgPriority_.cpu.data::samples     69323.00                       # Average QoS priority value for accepted requests
system.mem_ctrls.priorityMinLatency      0.000000018750                       # per QoS priority minimum request to response latency (s)
system.mem_ctrls.priorityMaxLatency      0.000153896500                       # per QoS priority maximum request to response latency (s)
system.mem_ctrls.numReadWriteTurnArounds         7291                       # Number of turnarounds from READ to WRITE
system.mem_ctrls.numWriteReadTurnArounds         7291                       # Number of turnarounds from WRITE to READ
system.mem_ctrls.numStayReadState              404421                       # Number of times bus staying in READ state
system.mem_ctrls.numStayWriteState             111084                       # Number of times bus staying in WRITE state
system.mem_ctrls.readReqs                      156173                       # Number of read requests accepted
system.mem_ctrls.writeReqs                     120467                       # Number of write requests accepted
system.mem_ctrls.readBursts                    156173                       # Number of DRAM read bursts, including those serviced by the write queue
system.mem_ctrls.writeBursts                   120467                       # Number of DRAM write bursts, including those merged in the write queue
system.mem_ctrls.servicedByWrQ                  10388                       # Number of DRAM read bursts serviced by the write queue
system.mem_ctrls.mergedWrBursts                  2141                       # Number of DRAM write bursts merged with an existing one
system.mem_ctrls.neitherReadNorWriteReqs            0                       # Number of requests that are neither read nor write
system.mem_ctrls.perBankRdBursts::0              8796                       # Per bank write bursts
system.mem_ctrls.perBankRdBursts::1              6715                       # Per bank write bursts
system.mem_ctrls.perBankRdBursts::2              9624                       # Per bank write bursts
system.mem_ctrls.perBankRdBursts::3              7067                       # Per bank write bursts
system.mem_ctrls.perBankRdBursts::4              8320                       # Per bank write bursts
system.mem_ctrls.perBankRdBursts::5             10017                       # Per bank write bursts
system.mem_ctrls.perBankRdBursts::6              8435                       # Per bank write bursts
system.mem_ctrls.perBankRdBursts::7              8691                       # Per bank write bursts
system.mem_ctrls.perBankRdBursts::8             11548                       # Per bank write bursts
system.mem_ctrls.perBankRdBursts::9              9221                       # Per bank write bursts
system.mem_ctrls.perBankRdBursts::10            10342                       # Per bank write bursts
system.mem_ctrls.perBankRdBursts::11            12116                       # Per bank write bursts
system.mem_ctrls.perBankRdBursts::12             8866                       # Per bank write bursts
system.mem_ctrls.perBankRdBursts::13            13525                       # Per bank write bursts
system.mem_ctrls.perBankRdBursts::14             5568                       # Per bank write bursts
system.mem_ctrls.perBankRdBursts::15             6934                       # Per bank write bursts
system.mem_ctrls.perBankWrBursts::0              7063                       # Per bank write bursts
system.mem_ctrls.perBankWrBursts::1              4558                       # Per bank write bursts
system.mem_ctrls.perBankWrBursts::2              8138                       # Per bank write bursts
system.mem_ctrls.perBankWrBursts::3              7835                       # Per bank write bursts
system.mem_ctrls.perBankWrBursts::4              7613                       # Per bank write bursts
system.mem_ctrls.perBankWrBursts::5              9849                       # Per bank write bursts
system.mem_ctrls.perBankWrBursts::6              7205                       # Per bank write bursts
system.mem_ctrls.perBankWrBursts::7              6880                       # Per bank write bursts
system.mem_ctrls.perBankWrBursts::8             10419                       # Per bank write bursts
system.mem_ctrls.perBankWrBursts::9              8409                       # Per bank write bursts
system.mem_ctrls.perBankWrBursts::10             7728                       # Per bank write bursts
system.mem_ctrls.perBankWrBursts::11             8132                       # Per bank write bursts
system.mem_ctrls.perBankWrBursts::12             5458                       # Per bank write bursts
system.mem_ctrls.perBankWrBursts::13             9982                       # Per bank write bursts
system.mem_ctrls.perBankWrBursts::14             3227                       # Per bank write bursts
system.mem_ctrls.perBankWrBursts::15             5801                       # Per bank write bursts
system.mem_ctrls.avgRdQLen                       1.09                       # Average read queue length when enqueuing
system.mem_ctrls.avgWrQLen                      25.76                       # Average write queue length when enqueuing
system.mem_ctrls.totQLat                   1990382500                       # Total ticks spent queuing
system.mem_ctrls.totBusLat                  728925000                       # Total ticks spent in databus transfers
system.mem_ctrls.totMemAccLat              4723851250                       # Total ticks spent from burst creation until serviced by the DRAM
system.mem_ctrls.avgQLat                     13652.86                       # Average queueing delay per DRAM burst
system.mem_ctrls.avgBusLat                    5000.00                       # Average bus latency per DRAM burst
system.mem_ctrls.avgMemAccLat                32402.86                       # Average memory access latency per DRAM burst
system.mem_ctrls.numRdRetry                         0                       # Number of times read queue was full causing retry
system.mem_ctrls.numWrRetry                         0                       # Number of times write queue was full causing retry
system.mem_ctrls.readRowHits                   103354                       # Number of row buffer hits during reads
system.mem_ctrls.writeRowHits                   79830                       # Number of row buffer hits during writes
system.mem_ctrls.readRowHitRate                 70.89                       # Row buffer hit rate for reads
system.mem_ctrls.writeRowHitRate                67.47                       # Row buffer hit rate for writes
system.mem_ctrls.readPktSize::0                     0                       # Read request sizes (log2)
system.mem_ctrls.readPktSize::1                     0                       # Read request sizes (log2)
system.mem_ctrls.readPktSize::2                     0                       # Read request sizes (log2)
system.mem_ctrls.readPktSize::3                     0                       # Read request sizes (log2)
system.mem_ctrls.readPktSize::4                     0                       # Read request sizes (log2)
system.mem_ctrls.readPktSize::5                     0                       # Read request sizes (log2)
system.mem_ctrls.readPktSize::6                156173                       # Read request sizes (log2)
system.mem_ctrls.writePktSize::0                    0                       # Write request sizes (log2)
system.mem_ctrls.writePktSize::1                    0                       # Write request sizes (log2)
system.mem_ctrls.writePktSize::2                    0                       # Write request sizes (log2)
system.mem_ctrls.writePktSize::3                    0                       # Write request sizes (log2)
system.mem_ctrls.writePktSize::4                    0                       # Write request sizes (log2)
system.mem_ctrls.writePktSize::5                    0                       # Write request sizes (log2)
system.mem_ctrls.writePktSize::6               120467                       # Write request sizes (log2)
system.mem_ctrls.rdQLenPdf::0                  133563                       # What read queue length does an incoming req see
system.mem_ctrls.rdQLenPdf::1                   11911                       # What read queue length does an incoming req see
system.mem_ctrls.rdQLenPdf::2                     311                       # What read queue length does an incoming req see
system.mem_ctrls.rdQLenPdf::3                       0                       # What read queue length does an incoming req see
system.mem_ctrls.rdQLenPdf::4                       0                       # What read queue length does an incoming req see
system.mem_ctrls.rdQLenPdf::5                       0                       # What read queue length does an incoming req see
system.mem_ctrls.rdQLenPdf::6                       0                       # What read queue length does an incoming req see
system.mem_ctrls.rdQLenPdf::7                       0                       # What read queue length does an incoming req see
system.mem_ctrls.rdQLenPdf::8                       0                       # What read queue length does an incoming req see
system.mem_ctrls.rdQLenPdf::9                       0                       # What read queue length does an incoming req see
system.mem_ctrls.rdQLenPdf::10                      0                       # What read queue length does an incoming req see
system.mem_ctrls.rdQLenPdf::11                      0                       # What read queue length does an incoming req see
system.mem_ctrls.rdQLenPdf::12                      0                       # What read queue length does an incoming req see
system.mem_ctrls.rdQLenPdf::13                      0                       # What read queue length does an incoming req see
system.mem_ctrls.rdQLenPdf::14                      0                       # What read queue length does an incoming req see
system.mem_ctrls.rdQLenPdf::15                      0                       # What read queue length does an incoming req see
system.mem_ctrls.rdQLenPdf::16                      0                       # What read queue length does an incoming req see
system.mem_ctrls.rdQLenPdf::17                      0                       # What read queue length does an incoming req see
system.mem_ctrls.rdQLenPdf::18                      0                       # What read queue length does an incoming req see
system.mem_ctrls.rdQLenPdf::19                      0                       # What read queue length does an incoming req see
system.mem_ctrls.rdQLenPdf::20                      0                       # What read queue length does an incoming req see
system.mem_ctrls.rdQLenPdf::21                      0                       # What read queue length does an incoming req see
system.mem_ctrls.rdQLenPdf::22                      0                       # What read queue length does an incoming req see
system.mem_ctrls.rdQLenPdf::23                      0                       # What read queue length does an incoming req see
system.mem_ctrls.rdQLenPdf::24                      0                       # What read queue length does an incoming req see
system.mem_ctrls.rdQLenPdf::25                      0                       # What read queue length does an incoming req see
system.mem_ctrls.rdQLenPdf::26                      0                       # What read queue length does an incoming req see
system.mem_ctrls.rdQLenPdf::27                      0                       # What read queue length does an incoming req see
system.mem_ctrls.rdQLenPdf::28                      0                       # What read queue length does an incoming req see
system.mem_ctrls.rdQLenPdf::29                      0                       # What read queue length does an incoming req see
system.mem_ctrls.rdQLenPdf::30                      0                       # What read queue length does an incoming req see
system.mem_ctrls.rdQLenPdf::31                      0                       # What read queue length does an incoming req see
system.mem_ctrls.wrQLenPdf::0                       1                       # What write queue length does an incoming req see
system.mem_ctrls.wrQLenPdf::1                       1                       # What write queue length does an incoming req see
system.mem_ctrls.wrQLenPdf::2                       1                       # What write queue length does an incoming req see
system.mem_ctrls.wrQLenPdf::3                       1                       # What write queue length does an incoming req see
system.mem_ctrls.wrQLenPdf::4                       1                       # What write queue length does an incoming req see
system.mem_ctrls.wrQLenPdf::5                       1                       # What write queue length does an incoming req see
system.mem_ctrls.wrQLenPdf::6                       1                       # What write queue length does an incoming req see
system.mem_ctrls.wrQLenPdf::7                       1                       # What write queue length does an incoming req see
system.mem_ctrls.wrQLenPdf::8                       1                       # What write queue length does an incoming req see
system.mem_ctrls.wrQLenPdf::9                       1                       # What write queue length does an incoming req see
system.mem_ctrls.wrQLenPdf::10                      1                       # What write queue length does an incoming req see
system.mem_ctrls.wrQLenPdf::11                      1                       # What write queue length does an incoming req see
system.mem_ctrls.wrQLenPdf::12                      1                       # What write queue length does an incoming req see
system.mem_ctrls.wrQLenPdf::13                      1                       # What write queue length does an incoming req see
system.mem_ctrls.wrQLenPdf::14                      1                       # What write queue length does an incoming req see
system.mem_ctrls.wrQLenPdf::15                    593                       # What write queue length does an incoming req see
system.mem_ctrls.wrQLenPdf::16                    709                       # What write queue length does an incoming req see
system.mem_ctrls.wrQLenPdf::17                   6656                       # What write queue length does an incoming req see
system.mem_ctrls.wrQLenPdf::18                   7291                       # What write queue length does an incoming req see
system.mem_ctrls.wrQLenPdf::19                   7415                       # What write queue length does an incoming req see
system.mem_ctrls.wrQLenPdf::20                   7378                       # What write queue length does an incoming req see
system.mem_ctrls.wrQLenPdf::21                   7358                       # What write queue length does an incoming req see
system.mem_ctrls.wrQLenPdf::22                   7461                       # What write queue length does an incoming req see
system.mem_ctrls.wrQLenPdf::23                   7377                       # What write queue length does an incoming req see
system.mem_ctrls.wrQLenPdf::24                   7365                       # What write queue length does an incoming req see
system.mem_ctrls.wrQLenPdf::25                   7384                       # What write queue length does an incoming req see
system.mem_ctrls.wrQLenPdf::26                   7411                       # What write queue length does an incoming req see
system.mem_ctrls.wrQLenPdf::27                   7343                       # What write queue length does an incoming req see
system.mem_ctrls.wrQLenPdf::28                   7337                       # What write queue length does an incoming req see
system.mem_ctrls.wrQLenPdf::29                   7334                       # What write queue length does an incoming req see
system.mem_ctrls.wrQLenPdf::30                   7299                       # What write queue length does an incoming req see
system.mem_ctrls.wrQLenPdf::31                   7294                       # What write queue length does an incoming req see
system.mem_ctrls.wrQLenPdf::32                   7292                       # What write queue length does an incoming req see
system.mem_ctrls.wrQLenPdf::33                     10                       # What write queue length does an incoming req see
system.mem_ctrls.wrQLenPdf::34                      2                       # What write queue length does an incoming req see
system.mem_ctrls.wrQLenPdf::35                      1                       # What write queue length does an incoming req see
system.mem_ctrls.wrQLenPdf::36                      1                       # What write queue length does an incoming req see
system.mem_ctrls.wrQLenPdf::37                      0                       # What write queue length does an incoming req see
system.mem_ctrls.wrQLenPdf::38                      0                       # What write queue length does an incoming req see
system.mem_ctrls.wrQLenPdf::39                      0                       # What write queue length does an incoming req see
system.mem_ctrls.wrQLenPdf::40                      0                       # What write queue length does an incoming req see
system.mem_ctrls.wrQLenPdf::41                      0                       # What write queue length does an incoming req see
system.mem_ctrls.wrQLenPdf::42                      0                       # What write queue length does an incoming req see
system.mem_ctrls.wrQLenPdf::43                      0                       # What write queue length does an incoming req see
system.mem_ctrls.wrQLenPdf::44                      0                       # What write queue length does an incoming req see
system.mem_ctrls.wrQLenPdf::45                      0                       # What write queue length does an incoming req see
system.mem_ctrls.wrQLenPdf::46                      0                       # What write queue length does an incoming req see
system.mem_ctrls.wrQLenPdf::47                      0                       # What write queue length does an incoming req see
system.mem_ctrls.wrQLenPdf::48                      0                       # What write queue length does an incoming req see
system.mem_ctrls.wrQLenPdf::49                      0                       # What write queue length does an incoming req see
system.mem_ctrls.wrQLenPdf::50                      0                       # What write queue length does an incoming req see
system.mem_ctrls.wrQLenPdf::51                      0                       # What write queue length does an incoming req see
system.mem_ctrls.wrQLenPdf::52                      0                       # What write queue length does an incoming req see
system.mem_ctrls.wrQLenPdf::53                      0                       # What write queue length does an incoming req see
system.mem_ctrls.wrQLenPdf::54                      0                       # What write queue length does an incoming req see
system.mem_ctrls.wrQLenPdf::55                      0                       # What write queue length does an incoming req see
system.mem_ctrls.wrQLenPdf::56                      0                       # What write queue length does an incoming req see
system.mem_ctrls.wrQLenPdf::57                      0                       # What write queue length does an incoming req see
system.mem_ctrls.wrQLenPdf::58                      0                       # What write queue length does an incoming req see
system.mem_ctrls.wrQLenPdf::59                      0                       # What write queue length does an incoming req see
system.mem_ctrls.wrQLenPdf::60                      0                       # What write queue length does an incoming req see
system.mem_ctrls.wrQLenPdf::61                      0                       # What write queue length does an incoming req see
system.mem_ctrls.wrQLenPdf::62                      0                       # What write queue length does an incoming req see
system.mem_ctrls.wrQLenPdf::63                      0                       # What write queue length does an incoming req see
system.mem_ctrls.bytesPerActivate::samples        80884                       # Bytes accessed per row activation
system.mem_ctrls.bytesPerActivate::mean    208.921814                       # Bytes accessed per row activation
system.mem_ctrls.bytesPerActivate::gmean   140.457903                       # Bytes accessed per row activation
system.mem_ctrls.bytesPerActivate::stdev   225.654949                       # Bytes accessed per row activation
system.mem_ctrls.bytesPerActivate::0-127        34137     42.20%     42.20% # Bytes accessed per row activation
system.mem_ctrls.bytesPerActivate::128-255        24175     29.89%     72.09% # Bytes accessed per row activation
system.mem_ctrls.bytesPerActivate::256-383         9938     12.29%     84.38% # Bytes accessed per row activation
system.mem_ctrls.bytesPerActivate::384-511         4524      5.59%     89.97% # Bytes accessed per row activation
system.mem_ctrls.bytesPerActivate::512-639         2356      2.91%     92.89% # Bytes accessed per row activation
system.mem_ctrls.bytesPerActivate::640-767         1412      1.75%     94.63% # Bytes accessed per row activation
system.mem_ctrls.bytesPerActivate::768-895          959      1.19%     95.82% # Bytes accessed per row activation
system.mem_ctrls.bytesPerActivate::896-1023          575      0.71%     96.53% # Bytes accessed per row activation
system.mem_ctrls.bytesPerActivate::1024-1151         2808      3.47%    100.00% # Bytes accessed per row activation
system.mem_ctrls.bytesPerActivate::total        80884                       # Bytes accessed per row activation
system.mem_ctrls.rdPerTurnAround::samples         7291                       # Reads before turning the bus around for writes
system.mem_ctrls.rdPerTurnAround::mean      19.993554                       # Reads before turning the bus around for writes
system.mem_ctrls.rdPerTurnAround::gmean     18.375914                       # Reads before turning the bus around for writes
system.mem_ctrls.rdPerTurnAround::stdev     12.767310                       # Reads before turning the bus around for writes
system.mem_ctrls.rdPerTurnAround::0-15           1305     17.90%     17.90% # Reads before turning the bus around for writes
system.mem_ctrls.rdPerTurnAround::16-31          5518     75.68%     93.58% # Reads before turning the bus around for writes
system.mem_ctrls.rdPerTurnAround::32-47           276      3.79%     97.37% # Reads before turning the bus around for writes
[...]
system.cpu.icache.tags.occ_percent::.cpu.inst     1.000000                       # Average percentage of cache occupancy
system.cpu.icache.tags.occ_percent::total     1.000000                       # Average percentage of cache occupancy
system.cpu.icache.tags.occ_task_id_blocks::1024          512                       # Occupied blocks per task id
system.cpu.icache.tags.age_task_id_blocks_1024::0           38                       # Occupied blocks per task id
system.cpu.icache.tags.age_task_id_blocks_1024::1           53                       # Occupied blocks per task id
system.cpu.icache.tags.age_task_id_blocks_1024::2          174                       # Occupied blocks per task id
system.cpu.icache.tags.age_task_id_blocks_1024::3          103                       # Occupied blocks per task id
system.cpu.icache.tags.age_task_id_blocks_1024::4          144                       # Occupied blocks per task id
system.cpu.icache.tags.occ_task_id_percent::1024            1                       # Percentage of cache occupancy per task id
system.cpu.icache.tags.tag_accesses         373987581                       # Number of tag accesses
system.cpu.icache.tags.data_accesses        373987581                       # Number of data accesses
system.cpu.dcache.pwrStateResidencyTicks::UNDEFINED 613728290000                       # Cumulative time (in ticks) in various power states
system.cpu.dcache.demand_hits::.cpu.data    101280048                       # number of demand (read+write) hits
system.cpu.dcache.demand_hits::total        101280048                       # number of demand (read+write) hits
system.cpu.dcache.overall_hits::.cpu.data    101280048                       # number of overall hits
system.cpu.dcache.overall_hits::total       101280048                       # number of overall hits
system.cpu.dcache.demand_misses::.cpu.data      3075192                       # number of demand (read+write) misses
system.cpu.dcache.demand_misses::total        3075192                       # number of demand (read+write) misses
system.cpu.dcache.overall_misses::.cpu.data      3075192                       # number of overall misses
system.cpu.dcache.overall_misses::total       3075192                       # number of overall misses
system.cpu.dcache.demand_miss_latency::.cpu.data 201016082000                       # number of demand (read+write) miss cycles
system.cpu.dcache.demand_miss_latency::total 201016082000                       # number of demand (read+write) miss cycles
system.cpu.dcache.overall_miss_latency::.cpu.data 201016082000                       # number of overall miss cycles
system.cpu.dcache.overall_miss_latency::total 201016082000                       # number of overall miss cycles
system.cpu.dcache.demand_accesses::.cpu.data    104355240                       # number of demand (read+write) accesses
system.cpu.dcache.demand_accesses::total    104355240                       # number of demand (read+write) accesses
system.cpu.dcache.overall_accesses::.cpu.data    104355240                       # number of overall (read+write) accesses
system.cpu.dcache.overall_accesses::total    104355240                       # number of overall (read+write) accesses
system.cpu.dcache.demand_miss_rate::.cpu.data     0.029468                       # miss rate for demand accesses
system.cpu.dcache.demand_miss_rate::total     0.029468                       # miss rate for demand accesses
system.cpu.dcache.overall_miss_rate::.cpu.data     0.029468                       # miss rate for overall accesses
system.cpu.dcache.overall_miss_rate::total     0.029468                       # miss rate for overall accesses
system.cpu.dcache.demand_avg_miss_latency::.cpu.data 65367.002125                       # average overall miss latency
system.cpu.dcache.demand_avg_miss_latency::total 65367.002125                       # average overall miss latency
system.cpu.dcache.overall_avg_miss_latency::.cpu.data 65367.002125                       # average overall miss latency
system.cpu.dcache.overall_avg_miss_latency::total 65367.002125                       # average overall miss latency
system.cpu.dcache.blocked_cycles::no_mshrs            0                       # number of cycles access was blocked
system.cpu.dcache.blocked_cycles::no_targets            0                       # number of cycles access was blocked
system.cpu.dcache.blocked::no_mshrs                 0                       # number of cycles access was blocked
system.cpu.dcache.blocked::no_targets               0                       # number of cycles access was blocked
system.cpu.dcache.avg_blocked_cycles::no_mshrs          nan                       # average number of cycles each access was blocked
system.cpu.dcache.avg_blocked_cycles::no_targets          nan                       # average number of cycles each access was blocked
system.cpu.dcache.writebacks::.writebacks       979718                       # number of writebacks
system.cpu.dcache.writebacks::total            979718                       # number of writebacks
system.cpu.dcache.demand_mshr_hits::.cpu.data       387395                       # number of demand (read+write) MSHR hits
system.cpu.dcache.demand_mshr_hits::total       387395                       # number of demand (read+write) MSHR hits
system.cpu.dcache.overall_mshr_hits::.cpu.data       387395                       # number of overall MSHR hits
system.cpu.dcache.overall_mshr_hits::total       387395                       # number of overall MSHR hits
system.cpu.dcache.demand_mshr_misses::.cpu.data      2687797                       # number of demand (read+write) MSHR misses
system.cpu.dcache.demand_mshr_misses::total      2687797                       # number of demand (read+write) MSHR misses
system.cpu.dcache.overall_mshr_misses::.cpu.data      2687797                       # number of overall MSHR misses
system.cpu.dcache.overall_mshr_misses::total      2687797                       # number of overall MSHR misses
system.cpu.dcache.overall_mshr_uncacheable_misses::.cpu.data         2766                       # number of overall MSHR uncacheable misses
system.cpu.dcache.overall_mshr_uncacheable_misses::total         2766                       # number of overall MSHR uncacheable misses
system.cpu.dcache.demand_mshr_miss_latency::.cpu.data 174231889000                       # number of demand (read+write) MSHR miss cycles
system.cpu.dcache.demand_mshr_miss_latency::total 174231889000                       # number of demand (read+write) MSHR miss cycles
system.cpu.dcache.overall_mshr_miss_latency::.cpu.data 174231889000                       # number of overall MSHR miss cycles
system.cpu.dcache.overall_mshr_miss_latency::total 174231889000                       # number of overall MSHR miss cycles
system.cpu.dcache.overall_mshr_uncacheable_latency::.cpu.data    241365500                       # number of overall MSHR uncacheable cycles
system.cpu.dcache.overall_mshr_uncacheable_latency::total    241365500                       # number of overall MSHR uncacheable cycles
system.cpu.dcache.demand_mshr_miss_rate::.cpu.data     0.025756                       # mshr miss rate for demand accesses
system.cpu.dcache.demand_mshr_miss_rate::total     0.025756                       # mshr miss rate for demand accesses
system.cpu.dcache.overall_mshr_miss_rate::.cpu.data     0.025756                       # mshr miss rate for overall accesses
system.cpu.dcache.overall_mshr_miss_rate::total     0.025756                       # mshr miss rate for overall accesses
system.cpu.dcache.demand_avg_mshr_miss_latency::.cpu.data 64823.306596                       # average overall mshr miss latency
system.cpu.dcache.demand_avg_mshr_miss_latency::total 64823.306596                       # average overall mshr miss latency
system.cpu.dcache.overall_avg_mshr_miss_latency::.cpu.data 64823.306596                       # average overall mshr miss latency
system.cpu.dcache.overall_avg_mshr_miss_latency::total 64823.306596                       # average overall mshr miss latency
system.cpu.dcache.overall_avg_mshr_uncacheable_latency::.cpu.data 87261.569053                       # average overall mshr uncacheable latency
system.cpu.dcache.overall_avg_mshr_uncacheable_latency::total 87261.569053                       # average overall mshr uncacheable latency
system.cpu.dcache.replacements                2695454                       # number of replacements
system.cpu.dcache.ReadReq_hits::.cpu.data     67058260                       # number of ReadReq hits
system.cpu.dcache.ReadReq_hits::total        67058260                       # number of ReadReq hits
system.cpu.dcache.ReadReq_misses::.cpu.data      2217498                       # number of ReadReq misses
system.cpu.dcache.ReadReq_misses::total       2217498                       # number of ReadReq misses
system.cpu.dcache.ReadReq_miss_latency::.cpu.data 148271141000                       # number of ReadReq miss cycles
system.cpu.dcache.ReadReq_miss_latency::total 148271141000                       # number of ReadReq miss cycles
system.cpu.dcache.ReadReq_accesses::.cpu.data     69275758                       # number of ReadReq accesses(hits+misses)
system.cpu.dcache.ReadReq_accesses::total     69275758                       # number of ReadReq accesses(hits+misses)
system.cpu.dcache.ReadReq_miss_rate::.cpu.data     0.032010                       # miss rate for ReadReq accesses
system.cpu.dcache.ReadReq_miss_rate::total     0.032010                       # miss rate for ReadReq accesses
system.cpu.dcache.ReadReq_avg_miss_latency::.cpu.data 66864.159968                       # average ReadReq miss latency
system.cpu.dcache.ReadReq_avg_miss_latency::total 66864.159968                       # average ReadReq miss latency
system.cpu.dcache.ReadReq_mshr_hits::.cpu.data         5628                       # number of ReadReq MSHR hits
system.cpu.dcache.ReadReq_mshr_hits::total         5628                       # number of ReadReq MSHR hits
system.cpu.dcache.ReadReq_mshr_misses::.cpu.data      2211870                       # number of ReadReq MSHR misses
system.cpu.dcache.ReadReq_mshr_misses::total      2211870                       # number of ReadReq MSHR misses
system.cpu.dcache.ReadReq_mshr_uncacheable::.cpu.data         1205                       # number of ReadReq MSHR uncacheable
system.cpu.dcache.ReadReq_mshr_uncacheable::total         1205                       # number of ReadReq MSHR uncacheable
system.cpu.dcache.ReadReq_mshr_miss_latency::.cpu.data 145653542000                       # number of ReadReq MSHR miss cycles
system.cpu.dcache.ReadReq_mshr_miss_latency::total 145653542000                       # number of ReadReq MSHR miss cycles
system.cpu.dcache.ReadReq_mshr_uncacheable_latency::.cpu.data    241365500                       # number of ReadReq MSHR uncacheable cycles
system.cpu.dcache.ReadReq_mshr_uncacheable_latency::total    241365500                       # number of ReadReq MSHR uncacheable cycles
system.cpu.dcache.ReadReq_mshr_miss_rate::.cpu.data     0.031928                       # mshr miss rate for ReadReq accesses
system.cpu.dcache.ReadReq_mshr_miss_rate::total     0.031928                       # mshr miss rate for ReadReq accesses
system.cpu.dcache.ReadReq_avg_mshr_miss_latency::.cpu.data 65850.860132                       # average ReadReq mshr miss latency
system.cpu.dcache.ReadReq_avg_mshr_miss_latency::total 65850.860132                       # average ReadReq mshr miss latency
system.cpu.dcache.ReadReq_avg_mshr_uncacheable_latency::.cpu.data 200303.319502                       # average ReadReq mshr uncacheable latency
system.cpu.dcache.ReadReq_avg_mshr_uncacheable_latency::total 200303.319502                       # average ReadReq mshr uncacheable latency
system.cpu.dcache.WriteReq_hits::.cpu.data     34221788                       # number of WriteReq hits
system.cpu.dcache.WriteReq_hits::total       34221788                       # number of WriteReq hits
system.cpu.dcache.WriteReq_misses::.cpu.data       857694                       # number of WriteReq misses
system.cpu.dcache.WriteReq_misses::total       857694                       # number of WriteReq misses
system.cpu.dcache.WriteReq_miss_latency::.cpu.data  52744941000                       # number of WriteReq miss cycles
system.cpu.dcache.WriteReq_miss_latency::total  52744941000                       # number of WriteReq miss cycles
system.cpu.dcache.WriteReq_accesses::.cpu.data     35079482                       # number of WriteReq accesses(hits+misses)
system.cpu.dcache.WriteReq_accesses::total     35079482                       # number of WriteReq accesses(hits+misses)
system.cpu.dcache.WriteReq_miss_rate::.cpu.data     0.024450                       # miss rate for WriteReq accesses
system.cpu.dcache.WriteReq_miss_rate::total     0.024450                       # miss rate for WriteReq accesses
system.cpu.dcache.WriteReq_avg_miss_latency::.cpu.data 61496.222429                       # average WriteReq miss latency
system.cpu.dcache.WriteReq_avg_miss_latency::total 61496.222429                       # average WriteReq miss latency
system.cpu.dcache.WriteReq_mshr_hits::.cpu.data       381767                       # number of WriteReq MSHR hits
system.cpu.dcache.WriteReq_mshr_hits::total       381767                       # number of WriteReq MSHR hits
system.cpu.dcache.WriteReq_mshr_misses::.cpu.data       475927                       # number of WriteReq MSHR misses
system.cpu.dcache.WriteReq_mshr_misses::total       475927                       # number of WriteReq MSHR misses
system.cpu.dcache.WriteReq_mshr_uncacheable::.cpu.data         1561                       # number of WriteReq MSHR uncacheable
system.cpu.dcache.WriteReq_mshr_uncacheable::total         1561                       # number of WriteReq MSHR uncacheable
system.cpu.dcache.WriteReq_mshr_miss_latency::.cpu.data  28578347000                       # number of WriteReq MSHR miss cycles
system.cpu.dcache.WriteReq_mshr_miss_latency::total  28578347000                       # number of WriteReq MSHR miss cycles
system.cpu.dcache.WriteReq_mshr_miss_rate::.cpu.data     0.013567                       # mshr miss rate for WriteReq accesses
system.cpu.dcache.WriteReq_mshr_miss_rate::total     0.013567                       # mshr miss rate for WriteReq accesses
system.cpu.dcache.WriteReq_avg_mshr_miss_latency::.cpu.data 60047.753122                       # average WriteReq mshr miss latency
system.cpu.dcache.WriteReq_avg_mshr_miss_latency::total 60047.753122                       # average WriteReq mshr miss latency
system.cpu.dcache.LoadLockedReq_hits::.cpu.data      1565696                       # number of LoadLockedReq hits
system.cpu.dcache.LoadLockedReq_hits::total      1565696                       # number of LoadLockedReq hits
system.cpu.dcache.LoadLockedReq_misses::.cpu.data         7672                       # number of LoadLockedReq misses
system.cpu.dcache.LoadLockedReq_misses::total         7672                       # number of LoadLockedReq misses
system.cpu.dcache.LoadLockedReq_miss_latency::.cpu.data    576342500                       # number of LoadLockedReq miss cycles
system.cpu.dcache.LoadLockedReq_miss_latency::total    576342500                       # number of LoadLockedReq miss cycles
system.cpu.dcache.LoadLockedReq_accesses::.cpu.data      1573368                       # number of LoadLockedReq accesses(hits+misses)
system.cpu.dcache.LoadLockedReq_accesses::total      1573368                       # number of LoadLockedReq accesses(hits+misses)
system.cpu.dcache.LoadLockedReq_miss_rate::.cpu.data     0.004876                       # miss rate for LoadLockedReq accesses
system.cpu.dcache.LoadLockedReq_miss_rate::total     0.004876                       # miss rate for LoadLockedReq accesses
system.cpu.dcache.LoadLockedReq_avg_miss_latency::.cpu.data 75122.849322                       # average LoadLockedReq miss latency
system.cpu.dcache.LoadLockedReq_avg_miss_latency::total 75122.849322                       # average LoadLockedReq miss latency
system.cpu.dcache.LoadLockedReq_mshr_misses::.cpu.data         7672                       # number of LoadLockedReq MSHR misses
system.cpu.dcache.LoadLockedReq_mshr_misses::total         7672                       # number of LoadLockedReq MSHR misses
system.cpu.dcache.LoadLockedReq_mshr_miss_latency::.cpu.data    568670500                       # number of LoadLockedReq MSHR miss cycles
system.cpu.dcache.LoadLockedReq_mshr_miss_latency::total    568670500                       # number of LoadLockedReq MSHR miss cycles
system.cpu.dcache.LoadLockedReq_mshr_miss_rate::.cpu.data     0.004876                       # mshr miss rate for LoadLockedReq accesses
system.cpu.dcache.LoadLockedReq_mshr_miss_rate::total     0.004876                       # mshr miss rate for LoadLockedReq accesses
system.cpu.dcache.LoadLockedReq_avg_mshr_miss_latency::.cpu.data 74122.849322                       # average LoadLockedReq mshr miss latency
system.cpu.dcache.LoadLockedReq_avg_mshr_miss_latency::total 74122.849322                       # average LoadLockedReq mshr miss latency
system.cpu.dcache.StoreCondReq_hits::.cpu.data      1573071                       # number of StoreCondReq hits
system.cpu.dcache.StoreCondReq_hits::total      1573071                       # number of StoreCondReq hits
system.cpu.dcache.StoreCondReq_accesses::.cpu.data      1573071                       # number of StoreCondReq accesses(hits+misses)
system.cpu.dcache.StoreCondReq_accesses::total      1573071                       # number of StoreCondReq accesses(hits+misses)
system.cpu.dcache.tags.pwrStateResidencyTicks::UNDEFINED 613728290000                       # Cumulative time (in ticks) in various power states
system.cpu.dcache.tags.tagsinuse                 1024                       # Cycle average of tags in use
system.cpu.dcache.tags.total_refs           107137384                       # Total number of references to valid blocks.
system.cpu.dcache.tags.sampled_refs           2696478                       # Sample count of references to valid blocks.
system.cpu.dcache.tags.avg_refs             39.732341                       # Average number of references to valid blocks.
system.cpu.dcache.tags.warmup_cycle                 0                       # Cycle when the warmup percentage was hit.
system.cpu.dcache.tags.occ_blocks::.cpu.data         1024                       # Average occupied blocks per requestor
system.cpu.dcache.tags.occ_percent::.cpu.data            1                       # Average percentage of cache occupancy
system.cpu.dcache.tags.occ_percent::total            1                       # Average percentage of cache occupancy
system.cpu.dcache.tags.occ_task_id_blocks::1024         1024                       # Occupied blocks per task id
system.cpu.dcache.tags.age_task_id_blocks_1024::0           46                       # Occupied blocks per task id
system.cpu.dcache.tags.age_task_id_blocks_1024::1          323                       # Occupied blocks per task id
system.cpu.dcache.tags.age_task_id_blocks_1024::2          596                       # Occupied blocks per task id
system.cpu.dcache.tags.age_task_id_blocks_1024::3           57                       # Occupied blocks per task id
system.cpu.dcache.tags.age_task_id_blocks_1024::4            2                       # Occupied blocks per task id
system.cpu.dcache.tags.occ_task_id_percent::1024            1                       # Percentage of cache occupancy per task id
system.cpu.dcache.tags.tag_accesses         217698812                       # Number of tag accesses
system.cpu.dcache.tags.data_accesses        217698812                       # Number of data accesses

---------- End Simulation Statistics   ----------
