
---------- Begin Simulation Statistics ----------
final_tick                               2542162050500                       # Number of ticks from beginning of simulation (restored from checkpoints and never reset)
host_inst_rate                                 230588                       # Simulator instruction rate (inst/s)
host_mem_usage                                 740736                       # Number of bytes of host memory used
host_op_rate                                   230587                       # Simulator op (including micro ops) rate (op/s)
host_seconds                                    18.20                       # Real time elapsed on the host
host_tick_rate                              667850041                       # Simulator tick rate (ticks/s)
sim_freq                                 1000000000000                       # Frequency of simulated ticks
sim_insts                                     4195756                       # Number of instructions simulated
sim_ops                                       4195756                       # Number of ops (including micro ops) simulated
sim_seconds                                  0.012152                       # Number of seconds simulated
sim_ticks                                 12152205500                       # Number of ticks simulated
system.cpu.branchPred.BTBCorrect                    0                       # Number of correct BTB predictions (this stat may not work properly.
system.cpu.branchPred.BTBHitPct             50.458459                       # BTB Hit Percentage
system.cpu.branchPred.BTBHits                  371731                       # Number of BTB hits
system.cpu.branchPred.BTBLookups               736707                       # Number of BTB lookups
system.cpu.branchPred.RASInCorrect               2659                       # Number of incorrect RAS predictions.
system.cpu.branchPred.condIncorrect            111733                       # Number of conditional branches incorrect
system.cpu.branchPred.condPredicted            940358                       # Number of conditional branches predicted
system.cpu.branchPred.indirectHits              30877                       # Number of indirect target hits.
system.cpu.branchPred.indirectLookups          207746                       # Number of indirect predictor lookups.
system.cpu.branchPred.indirectMisses           176869                       # Number of indirect misses.
system.cpu.branchPred.lookups                 1142235                       # Number of BP lookups
system.cpu.branchPred.usedRAS                   70275                       # Number of times the RAS was used to get a target.
system.cpu.branchPredindirectMispredicted        29610                       # Number of mispredicted indirect branches.
system.cpu.committedInsts                     4195756                       # Number of instructions committed
system.cpu.committedOps                       4195756                       # Number of ops (including micro ops) committed
system.cpu.cpi                               5.789324                       # CPI: cycles per instruction
system.cpu.discardedOps                        303420                       # Number of ops (including micro ops) which were discarded before commit
system.cpu.dtb.data_accesses                   616447                       # DTB accesses
system.cpu.dtb.data_acv                           129                       # DTB access violations
system.cpu.dtb.data_hits                      1476082                       # DTB hits
system.cpu.dtb.data_misses                       8286                       # DTB misses
system.cpu.dtb.fetch_accesses                       0                       # ITB accesses
system.cpu.dtb.fetch_acv                            0                       # ITB acv
system.cpu.dtb.fetch_hits                           0                       # ITB hits
system.cpu.dtb.fetch_misses                         0                       # ITB misses
system.cpu.dtb.read_accesses                   414993                       # DTB read accesses
system.cpu.dtb.read_acv                            43                       # DTB read access violations
system.cpu.dtb.read_hits                       872427                       # DTB read hits
system.cpu.dtb.read_misses                       7418                       # DTB read misses
system.cpu.dtb.write_accesses                  201454                       # DTB write accesses
system.cpu.dtb.write_acv                           86                       # DTB write access violations
system.cpu.dtb.write_hits                      603655                       # DTB write hits
system.cpu.dtb.write_misses                       868                       # DTB write misses
system.cpu.fetch2.amo_instructions                  0                       # Number of memory atomic instructions successfully decoded
system.cpu.fetch2.fp_instructions               18265                       # Number of floating point instructions successfully decoded
system.cpu.fetch2.int_instructions            3662862                       # Number of integer instructions successfully decoded
system.cpu.fetch2.load_instructions           1149799                       # Number of memory load instructions successfully decoded
system.cpu.fetch2.store_instructions           682413                       # Number of memory store instructions successfully decoded
system.cpu.fetch2.vec_instructions                  0                       # Number of SIMD instructions successfully decoded
system.cpu.idleCycles                        17092315                       # Total number of cycles that the object has spent stopped
system.cpu.ipc                               0.172732                       # IPC: instructions per cycle
system.cpu.itb.data_accesses                        0                       # DTB accesses
system.cpu.itb.data_acv                             0                       # DTB access violations
system.cpu.itb.data_hits                            0                       # DTB hits
system.cpu.itb.data_misses                          0                       # DTB misses
system.cpu.itb.fetch_accesses                  981835                       # ITB accesses
system.cpu.itb.fetch_acv                          387                       # ITB acv
system.cpu.itb.fetch_hits                      975869                       # ITB hits
system.cpu.itb.fetch_misses                      5966                       # ITB misses
system.cpu.itb.read_accesses                        0                       # DTB read accesses
system.cpu.itb.read_acv                             0                       # DTB read access violations
system.cpu.itb.read_hits                            0                       # DTB read hits
system.cpu.itb.read_misses                          0                       # DTB read misses
system.cpu.itb.write_accesses                       0                       # DTB write accesses
system.cpu.itb.write_acv                            0                       # DTB write access violations
system.cpu.itb.write_hits                           0                       # DTB write hits
system.cpu.itb.write_misses                         0                       # DTB write misses
system.cpu.kern.callpal::swpctx                   574      9.41%      9.41% # number of callpals executed
system.cpu.kern.callpal::tbi                       25      0.41%      9.82% # number of callpals executed
system.cpu.kern.callpal::swpipl                  4235     69.41%     79.23% # number of callpals executed
system.cpu.kern.callpal::rdps                      50      0.82%     80.05% # number of callpals executed
system.cpu.kern.callpal::wrusp                      4      0.07%     80.12% # number of callpals executed
system.cpu.kern.callpal::rdusp                      3      0.05%     80.17% # number of callpals executed
system.cpu.kern.callpal::rti                      897     14.70%     94.87% # number of callpals executed
system.cpu.kern.callpal::callsys                  235      3.85%     98.72% # number of callpals executed
system.cpu.kern.callpal::imb                       78      1.28%    100.00% # number of callpals executed
system.cpu.kern.callpal::total                   6101                       # number of callpals executed
system.cpu.kern.inst.arm                            0                       # number of arm instructions executed
system.cpu.kern.inst.hwrei                      14445                       # number of hwrei instructions executed
system.cpu.kern.inst.quiesce                        9                       # number of quiesce instructions executed
system.cpu.kern.ipl_count::0                     2438     47.34%     47.34% # number of times we switched to this ipl
system.cpu.kern.ipl_count::21                       5      0.10%     47.44% # number of times we switched to this ipl
system.cpu.kern.ipl_count::22                      13      0.25%     47.69% # number of times we switched to this ipl
system.cpu.kern.ipl_count::31                    2694     52.31%    100.00% # number of times we switched to this ipl
system.cpu.kern.ipl_count::total                 5150                       # number of times we switched to this ipl
system.cpu.kern.ipl_good::0                      2425     49.82%     49.82% # number of times we switched to this ipl from a different ipl
system.cpu.kern.ipl_good::21                        5      0.10%     49.92% # number of times we switched to this ipl from a different ipl
system.cpu.kern.ipl_good::22                       13      0.27%     50.18% # number of times we switched to this ipl from a different ipl
system.cpu.kern.ipl_good::31                     2425     49.82%    100.00% # number of times we switched to this ipl from a different ipl
system.cpu.kern.ipl_good::total                  4868                       # number of times we switched to this ipl from a different ipl
system.cpu.kern.ipl_ticks::0              11192926500     92.07%     92.07% # number of cycles we spent at this ipl
system.cpu.kern.ipl_ticks::21                 9344000      0.08%     92.15% # number of cycles we spent at this ipl
system.cpu.kern.ipl_ticks::22                19445000      0.16%     92.31% # number of cycles we spent at this ipl
system.cpu.kern.ipl_ticks::31               934774500      7.69%    100.00% # number of cycles we spent at this ipl
system.cpu.kern.ipl_ticks::total          12156490000                       # number of cycles we spent at this ipl
system.cpu.kern.ipl_used::0                  0.994668                       # fraction of swpipl calls that actually changed the ipl
system.cpu.kern.ipl_used::21                        1                       # fraction of swpipl calls that actually changed the ipl
system.cpu.kern.ipl_used::22                        1                       # fraction of swpipl calls that actually changed the ipl
system.cpu.kern.ipl_used::31                 0.900148                       # fraction of swpipl calls that actually changed the ipl
system.cpu.kern.ipl_used::total              0.945243                       # fraction of swpipl calls that actually changed the ipl
system.cpu.kern.mode_good::kernel                 869                      
system.cpu.kern.mode_good::user                   869                      
system.cpu.kern.mode_good::idle                     0                      
system.cpu.kern.mode_switch::kernel              1471                       # number of protection mode switches
system.cpu.kern.mode_switch::user                 869                       # number of protection mode switches
system.cpu.kern.mode_switch::idle                   0                       # number of protection mode switches
system.cpu.kern.mode_switch_good::kernel     0.590755                       # fraction of useful protection mode switches
system.cpu.kern.mode_switch_good::user              1                       # fraction of useful protection mode switches
system.cpu.kern.mode_switch_good::idle            nan                       # fraction of useful protection mode switches
system.cpu.kern.mode_switch_good::total      0.742735                       # fraction of useful protection mode switches
system.cpu.kern.mode_ticks::kernel         8201009500     67.46%     67.46% # number of ticks spent at the given mode
system.cpu.kern.mode_ticks::user           3955480500     32.54%    100.00% # number of ticks spent at the given mode
system.cpu.kern.mode_ticks::idle                    0      0.00%    100.00% # number of ticks spent at the given mode
system.cpu.kern.swap_context                      574                       # number of times the context was actually changed
system.cpu.numCycles                         24290591                       # number of cpu cycles simulated
system.cpu.numFetchSuspends                         9                       # Number of times Execute suspended instruction fetching
system.cpu.numWorkItemsCompleted                    0                       # number of work items this cpu completed
system.cpu.numWorkItemsStarted                      0                       # number of work items this cpu started
system.cpu.op_class_0::No_OpClass               85385      2.04%      2.04% # Class of committed instruction
system.cpu.op_class_0::IntAlu                 2541403     60.57%     62.61% # Class of committed instruction
system.cpu.op_class_0::IntMult                   3684      0.09%     62.69% # Class of committed instruction
system.cpu.op_class_0::IntDiv                       0      0.00%     62.69% # Class of committed instruction
system.cpu.op_class_0::FloatAdd                  8286      0.20%     62.89% # Class of committed instruction
system.cpu.op_class_0::FloatCmp                     0      0.00%     62.89% # Class of committed instruction
system.cpu.op_class_0::FloatCvt                     0      0.00%     62.89% # Class of committed instruction
system.cpu.op_class_0::FloatMult                    0      0.00%     62.89% # Class of committed instruction
system.cpu.op_class_0::FloatMultAcc                 0      0.00%     62.89% # Class of committed instruction
system.cpu.op_class_0::FloatDiv                  1593      0.04%     62.93% # Class of committed instruction
system.cpu.op_class_0::FloatMisc                    0      0.00%     62.93% # Class of committed instruction
system.cpu.op_class_0::FloatSqrt                    0      0.00%     62.93% # Class of committed instruction
system.cpu.op_class_0::SimdAdd                      0      0.00%     62.93% # Class of committed instruction
system.cpu.op_class_0::SimdAddAcc                   0      0.00%     62.93% # Class of committed instruction
system.cpu.op_class_0::SimdAlu                      0      0.00%     62.93% # Class of committed instruction
system.cpu.op_class_0::SimdCmp                      0      0.00%     62.93% # Class of committed instruction
system.cpu.op_class_0::SimdCvt                      0      0.00%     62.93% # Class of committed instruction
system.cpu.op_class_0::SimdMisc                     0      0.00%     62.93% # Class of committed instruction
system.cpu.op_class_0::SimdMult                     0      0.00%     62.93% # Class of committed instruction
system.cpu.op_class_0::SimdMultAcc                  0      0.00%     62.93% # Class of committed instruction
system.cpu.op_class_0::SimdShift                    0      0.00%     62.93% # Class of committed instruction
system.cpu.op_class_0::SimdShiftAcc                 0      0.00%     62.93% # Class of committed instruction
system.cpu.op_class_0::SimdDiv                      0      0.00%     62.93% # Class of committed instruction
system.cpu.op_class_0::SimdSqrt                     0      0.00%     62.93% # Class of committed instruction
system.cpu.op_class_0::SimdFloatAdd                 0      0.00%     62.93% # Class of committed instruction
system.cpu.op_class_0::SimdFloatAlu                 0      0.00%     62.93% # Class of committed instruction
system.cpu.op_class_0::SimdFloatCmp                 0      0.00%     62.93% # Class of committed instruction
system.cpu.op_class_0::SimdFloatCvt                 0      0.00%     62.93% # Class of committed instruction
system.cpu.op_class_0::SimdFloatDiv                 0      0.00%     62.93% # Class of committed instruction
system.cpu.op_class_0::SimdFloatMisc                0      0.00%     62.93% # Class of committed instruction
system.cpu.op_class_0::SimdFloatMult                0      0.00%     62.93% # Class of committed instruction
system.cpu.op_class_0::SimdFloatMultAcc             0      0.00%     62.93% # Class of committed instruction
system.cpu.op_class_0::SimdFloatSqrt                0      0.00%     62.93% # Class of committed instruction
system.cpu.op_class_0::SimdReduceAdd                0      0.00%     62.93% # Class of committed instruction
system.cpu.op_class_0::SimdReduceAlu                0      0.00%     62.93% # Class of committed instruction
system.cpu.op_class_0::SimdReduceCmp                0      0.00%     62.93% # Class of committed instruction
system.cpu.op_class_0::SimdFloatReduceAdd            0      0.00%     62.93% # Class of committed instruction
system.cpu.op_class_0::SimdFloatReduceCmp            0      0.00%     62.93% # Class of committed instruction
system.cpu.op_class_0::SimdAes                      0      0.00%     62.93% # Class of committed instruction
system.cpu.op_class_0::SimdAesMix                   0      0.00%     62.93% # Class of committed instruction
system.cpu.op_class_0::SimdSha1Hash                 0      0.00%     62.93% # Class of committed instruction
system.cpu.op_class_0::SimdSha1Hash2                0      0.00%     62.93% # Class of committed instruction
system.cpu.op_class_0::SimdSha256Hash               0      0.00%     62.93% # Class of committed instruction
system.cpu.op_class_0::SimdSha256Hash2              0      0.00%     62.93% # Class of committed instruction
system.cpu.op_class_0::SimdShaSigma2                0      0.00%     62.93% # Class of committed instruction
system.cpu.op_class_0::SimdShaSigma3                0      0.00%     62.93% # Class of committed instruction
system.cpu.op_class_0::SimdPredAlu                  0      0.00%     62.93% # Class of committed instruction
system.cpu.op_class_0::MemRead                 839233     20.00%     82.93% # Class of committed instruction
system.cpu.op_class_0::MemWrite                592468     14.12%     97.05% # Class of committed instruction
system.cpu.op_class_0::FloatMemRead              9988      0.24%     97.29% # Class of committed instruction
system.cpu.op_class_0::FloatMemWrite             8788      0.21%     97.50% # Class of committed instruction
system.cpu.op_class_0::IprAccess               104928      2.50%    100.00% # Class of committed instruction
system.cpu.op_class_0::InstPrefetch                 0      0.00%    100.00% # Class of committed instruction
system.cpu.op_class_0::total                  4195756                       # Class of committed instruction
system.cpu.quiesceCycles                        13820                       # Total number of cycles that CPU has spent quiesced or waiting for an interrupt
system.cpu.tickCycles                         7198276                       # Number of cycles that the object actually ticked
system.disk0.dma_read_bytes                         0                       # Number of bytes transfered via DMA reads (not PRD).
system.disk0.dma_read_full_pages                    0                       # Number of full page size DMA reads (not PRD).
system.disk0.dma_read_txs                           0                       # Number of DMA read transactions (not PRD).
system.disk0.dma_write_bytes                    12288                       # Number of bytes transfered via DMA writes.
system.disk0.dma_write_full_pages                   0                       # Number of full page size DMA writes.
system.disk0.dma_write_txs                          3                       # Number of DMA write transactions.
system.disk2.dma_read_bytes                         0                       # Number of bytes transfered via DMA reads (not PRD).
system.disk2.dma_read_full_pages                    0                       # Number of full page size DMA reads (not PRD).
system.disk2.dma_read_txs                           0                       # Number of DMA read transactions (not PRD).
system.disk2.dma_write_bytes                        0                       # Number of bytes transfered via DMA writes.
system.disk2.dma_write_full_pages                   0                       # Number of full page size DMA writes.
system.disk2.dma_write_txs                          0                       # Number of DMA write transactions.
system.membus.snoop_filter.hit_multi_requests          442                       # Number of requests hitting in the snoop filter with multiple (>1) holders of the requested data.
system.membus.snoop_filter.hit_multi_snoops            0                       # Number of snoops hitting in the snoop filter with multiple (>1) holders of the requested data.
system.membus.snoop_filter.hit_single_requests       158487                       # Number of requests hitting in the snoop filter with a single holder of the requested data.
system.membus.snoop_filter.hit_single_snoops            0                       # Number of snoops hitting in the snoop filter with a single holder of the requested data.
system.membus.snoop_filter.tot_requests        318583                       # Total number of requests made to the snoop filter.
system.membus.snoop_filter.tot_snoops               0                       # Total number of snoops made to the snoop filter.
system.tsunami.ethernet.coalescedRxDesc           nan                       # average number of RxDesc's coalesced into each post
system.tsunami.ethernet.coalescedRxIdle           nan                       # average number of RxIdle's coalesced into each post
system.tsunami.ethernet.coalescedRxOk             nan                       # average number of RxOk's coalesced into each post
system.tsunami.ethernet.coalescedRxOrn            nan                       # average number of RxOrn's coalesced into each post
system.tsunami.ethernet.coalescedSwi              nan                       # average number of Swi's coalesced into each post
system.tsunami.ethernet.coalescedTotal            nan                       # average number of interrupts coalesced into each post
system.tsunami.ethernet.coalescedTxDesc           nan                       # average number of TxDesc's coalesced into each post
system.tsunami.ethernet.coalescedTxIdle           nan                       # average number of TxIdle's coalesced into each post
system.tsunami.ethernet.coalescedTxOk             nan                       # average number of TxOk's coalesced into each post
system.tsunami.ethernet.descDMAReads                0                       # Number of descriptors the device read w/ DMA
system.tsunami.ethernet.descDMAWrites               0                       # Number of descriptors the device wrote w/ DMA
system.tsunami.ethernet.descDmaReadBytes            0                       # number of descriptor bytes read w/ DMA
system.tsunami.ethernet.descDmaWriteBytes            0                       # number of descriptor bytes write w/ DMA
system.tsunami.ethernet.droppedPackets              0                       # number of packets dropped
system.tsunami.ethernet.postedInterrupts            0                       # number of posts to CPU
system.tsunami.ethernet.postedRxDesc                0                       # number of RxDesc interrupts posted to CPU
system.tsunami.ethernet.postedRxIdle                0                       # number of rxIdle interrupts posted to CPU
system.tsunami.ethernet.postedRxOk                  0                       # number of RxOk interrupts posted to CPU
system.tsunami.ethernet.postedRxOrn                 0                       # number of RxOrn posted to CPU
system.tsunami.ethernet.postedSwi                   0                       # number of software interrupts posted to CPU
system.tsunami.ethernet.postedTxDesc                0                       # number of TxDesc interrupts posted to CPU
system.tsunami.ethernet.postedTxIdle                0                       # number of TxIdle interrupts posted to CPU
system.tsunami.ethernet.postedTxOk                  0                       # number of TxOk interrupts posted to CPU
system.tsunami.ethernet.totalRxDesc                 0                       # total number of RxDesc written to ISR
system.tsunami.ethernet.totalRxIdle                 0                       # total number of RxIdle written to ISR
system.tsunami.ethernet.totalRxOk                   0                       # total number of RxOk written to ISR
system.tsunami.ethernet.totalRxOrn                  0                       # total number of RxOrn written to ISR
system.tsunami.ethernet.totalSwi                    0                       # total number of Swi written to ISR
system.tsunami.ethernet.totalTxDesc                 0                       # total number of TxDesc written to ISR
system.tsunami.ethernet.totalTxIdle                 0                       # total number of TxIdle written to ISR
system.tsunami.ethernet.totalTxOk                   0                       # total number of TxOk written to ISR
system.bridge.pwrStateResidencyTicks::UNDEFINED 2542162050500                       # Cumulative time (in ticks) in various power states
system.voltage_domain.voltage                       1                       # Voltage in Volts
system.iocache.pwrStateResidencyTicks::UNDEFINED 2542162050500                       # Cumulative time (in ticks) in various power states
system.iocache.demand_misses::.tsunami.ide          195                       # number of demand (read+write) misses
system.iocache.demand_misses::total               195                       # number of demand (read+write) misses
system.iocache.overall_misses::.tsunami.ide          195                       # number of overall misses
system.iocache.overall_misses::total              195                       # number of overall misses
system.iocache.demand_miss_latency::.tsunami.ide     22918459                       # number of demand (read+write) miss cycles
system.iocache.demand_miss_latency::total     22918459                       # number of demand (read+write) miss cycles
system.iocache.overall_miss_latency::.tsunami.ide     22918459                       # number of overall miss cycles
system.iocache.overall_miss_latency::total     22918459                       # number of overall miss cycles
system.iocache.demand_accesses::.tsunami.ide          195                       # number of demand (read+write) accesses
system.iocache.demand_accesses::total             195                       # number of demand (read+write) accesses
system.iocache.overall_accesses::.tsunami.ide          195                       # number of overall (read+write) accesses
system.iocache.overall_accesses::total            195                       # number of overall (read+write) accesses
system.iocache.demand_miss_rate::.tsunami.ide            1                       # miss rate for demand accesses
system.iocache.demand_miss_rate::total              1                       # miss rate for demand accesses
system.iocache.overall_miss_rate::.tsunami.ide            1                       # miss rate for overall accesses
system.iocache.overall_miss_rate::total             1                       # miss rate for overall accesses
system.iocache.demand_avg_miss_latency::.tsunami.ide 117530.558974                       # average overall miss latency
system.iocache.demand_avg_miss_latency::total 117530.558974                       # average overall miss latency
system.iocache.overall_avg_miss_latency::.tsunami.ide 117530.558974                       # average overall miss latency
system.iocache.overall_avg_miss_latency::total 117530.558974                       # average overall miss latency
system.iocache.blocked_cycles::no_mshrs             0                       # number of cycles access was blocked
system.iocache.blocked_cycles::no_targets            0                       # number of cycles access was blocked
system.iocache.blocked::no_mshrs                    0                       # number of cycles access was blocked
system.iocache.blocked::no_targets                  0                       # number of cycles access was blocked
system.iocache.avg_blocked_cycles::no_mshrs          nan                       # average number of cycles each access was blocked
system.iocache.avg_blocked_cycles::no_targets          nan                       # average number of cycles each access was blocked
system.iocache.writebacks::.writebacks            176                       # number of writebacks
system.iocache.writebacks::total                  176                       # number of writebacks
system.iocache.demand_mshr_misses::.tsunami.ide          195                       # number of demand (read+write) MSHR misses
system.iocache.demand_mshr_misses::total          195                       # number of demand (read+write) MSHR misses
system.iocache.overall_mshr_misses::.tsunami.ide          195                       # number of overall MSHR misses
system.iocache.overall_mshr_misses::total          195                       # number of overall MSHR misses
system.iocache.demand_mshr_miss_latency::.tsunami.ide     13156492                       # number of demand (read+write) MSHR miss cycles
system.iocache.demand_mshr_miss_latency::total     13156492                       # number of demand (read+write) MSHR miss cycles
system.iocache.overall_mshr_miss_latency::.tsunami.ide     13156492                       # number of overall MSHR miss cycles
system.iocache.overall_mshr_miss_latency::total     13156492                       # number of overall MSHR miss cycles
system.iocache.demand_mshr_miss_rate::.tsunami.ide            1                       # mshr miss rate for demand accesses
system.iocache.demand_mshr_miss_rate::total            1                       # mshr miss rate for demand accesses
system.iocache.overall_mshr_miss_rate::.tsunami.ide            1                       # mshr miss rate for overall accesses
system.iocache.overall_mshr_miss_rate::total            1                       # mshr miss rate for overall accesses
system.iocache.demand_avg_mshr_miss_latency::.tsunami.ide 67469.189744                       # average overall mshr miss latency
system.iocache.demand_avg_mshr_miss_latency::total 67469.189744                       # average overall mshr miss latency
system.iocache.overall_avg_mshr_miss_latency::.tsunami.ide 67469.189744                       # average overall mshr miss latency
system.iocache.overall_avg_mshr_miss_latency::total 67469.189744                       # average overall mshr miss latency
system.iocache.replacements                       179                       # number of replacements
system.iocache.ReadReq_misses::.tsunami.ide            3                       # number of ReadReq misses
system.iocache.ReadReq_misses::total                3                       # number of ReadReq misses
system.iocache.ReadReq_miss_latency::.tsunami.ide       349497                       # number of ReadReq miss cycles
system.iocache.ReadReq_miss_latency::total       349497                       # number of ReadReq miss cycles
system.iocache.ReadReq_accesses::.tsunami.ide            3                       # number of ReadReq accesses(hits+misses)
system.iocache.ReadReq_accesses::total              3                       # number of ReadReq accesses(hits+misses)
system.iocache.ReadReq_miss_rate::.tsunami.ide            1                       # miss rate for ReadReq accesses
system.iocache.ReadReq_miss_rate::total             1                       # miss rate for ReadReq accesses
system.iocache.ReadReq_avg_miss_latency::.tsunami.ide       116499                       # average ReadReq miss latency
system.iocache.ReadReq_avg_miss_latency::total       116499                       # average ReadReq miss latency
system.iocache.ReadReq_mshr_misses::.tsunami.ide            3                       # number of ReadReq MSHR misses
system.iocache.ReadReq_mshr_misses::total            3                       # number of ReadReq MSHR misses
system.iocache.ReadReq_mshr_miss_latency::.tsunami.ide       199497                       # number of ReadReq MSHR miss cycles
system.iocache.ReadReq_mshr_miss_latency::total       199497                       # number of ReadReq MSHR miss cycles
system.iocache.ReadReq_mshr_miss_rate::.tsunami.ide            1                       # mshr miss rate for ReadReq accesses
system.iocache.ReadReq_mshr_miss_rate::total            1                       # mshr miss rate for ReadReq accesses
system.iocache.ReadReq_avg_mshr_miss_latency::.tsunami.ide        66499                       # average ReadReq mshr miss latency
system.iocache.ReadReq_avg_mshr_miss_latency::total        66499                       # average ReadReq mshr miss latency
system.iocache.WriteLineReq_misses::.tsunami.ide          192                       # number of WriteLineReq misses
system.iocache.WriteLineReq_misses::total          192                       # number of WriteLineReq misses
system.iocache.WriteLineReq_miss_latency::.tsunami.ide     22568962                       # number of WriteLineReq miss cycles
system.iocache.WriteLineReq_miss_latency::total     22568962                       # number of WriteLineReq miss cycles
system.iocache.WriteLineReq_accesses::.tsunami.ide          192                       # number of WriteLineReq accesses(hits+misses)
system.iocache.WriteLineReq_accesses::total          192                       # number of WriteLineReq accesses(hits+misses)
system.iocache.WriteLineReq_miss_rate::.tsunami.ide            1                       # miss rate for WriteLineReq accesses
system.iocache.WriteLineReq_miss_rate::total            1                       # miss rate for WriteLineReq accesses
system.iocache.WriteLineReq_avg_miss_latency::.tsunami.ide 117546.677083                       # average WriteLineReq miss latency
system.iocache.WriteLineReq_avg_miss_latency::total 117546.677083                       # average WriteLineReq miss latency
system.iocache.WriteLineReq_mshr_misses::.tsunami.ide          192                       # number of WriteLineReq MSHR misses
system.iocache.WriteLineReq_mshr_misses::total          192                       # number of WriteLineReq MSHR misses
system.iocache.WriteLineReq_mshr_miss_latency::.tsunami.ide     12956995                       # number of WriteLineReq MSHR miss cycles
system.iocache.WriteLineReq_mshr_miss_latency::total     12956995                       # number of WriteLineReq MSHR miss cycles
system.iocache.WriteLineReq_mshr_miss_rate::.tsunami.ide            1                       # mshr miss rate for WriteLineReq accesses
system.iocache.WriteLineReq_mshr_miss_rate::total            1                       # mshr miss rate for WriteLineReq accesses
system.iocache.WriteLineReq_avg_mshr_miss_latency::.tsunami.ide 67484.348958                       # average WriteLineReq mshr miss latency
system.iocache.WriteLineReq_avg_mshr_miss_latency::total 67484.348958                       # average WriteLineReq mshr miss latency
system.iocache.tags.pwrStateResidencyTicks::UNDEFINED 2542162050500                       # Cumulative time (in ticks) in various power states
system.iocache.tags.tagsinuse                3.304283                       # Cycle average of tags in use
system.iocache.tags.total_refs                    179                       # Total number of references to valid blocks.
system.iocache.tags.sampled_refs                  179                       # Sample count of references to valid blocks.
system.iocache.tags.avg_refs                        1                       # Average number of references to valid blocks.
system.iocache.tags.warmup_cycle         2539651327000                       # Cycle when the warmup percentage was hit.
system.iocache.tags.occ_blocks::.tsunami.ide     3.304283                       # Average occupied blocks per requestor
system.iocache.tags.occ_percent::.tsunami.ide     0.206518                       # Average percentage of cache occupancy
system.iocache.tags.occ_percent::total       0.206518                       # Average percentage of cache occupancy
system.iocache.tags.occ_task_id_blocks::1023           16                       # Occupied blocks per task id
system.iocache.tags.age_task_id_blocks_1023::3           16                       # Occupied blocks per task id
system.iocache.tags.occ_task_id_percent::1023            1                       # Percentage of cache occupancy per task id
system.iocache.tags.tag_accesses                 1755                       # Number of tag accesses
system.iocache.tags.data_accesses                1755                       # Number of data accesses
system.membus.pwrStateResidencyTicks::UNDEFINED 2542162050500                       # Cumulative time (in ticks) in various power states
system.membus.trans_dist::ReadReq                 108                       # Transaction distribution
system.membus.trans_dist::ReadResp             131030                       # Transaction distribution
system.membus.trans_dist::WriteReq                100                       # Transaction distribution
system.membus.trans_dist::WriteResp               100                       # Transaction distribution
system.membus.trans_dist::WritebackDirty        34886                       # Transaction distribution
system.membus.trans_dist::WritebackClean        89017                       # Transaction distribution
system.membus.trans_dist::CleanEvict            34565                       # Transaction distribution
system.membus.trans_dist::UpgradeReq               15                       # Transaction distribution
system.membus.trans_dist::ReadExReq             28984                       # Transaction distribution
system.membus.trans_dist::ReadExResp            28984                       # Transaction distribution
system.membus.trans_dist::ReadCleanReq          89607                       # Transaction distribution
system.membus.trans_dist::ReadSharedReq         41317                       # Transaction distribution
system.membus.trans_dist::BadAddressError            2                       # Transaction distribution
system.membus.trans_dist::InvalidateReq           192                       # Transaction distribution
system.membus.pkt_count_system.iocache.mem_side::system.mem_ctrls.port          374                       # Packet count per connected master and slave (bytes)
system.membus.pkt_count_system.iocache.mem_side::total          374                       # Packet count per connected master and slave (bytes)
system.membus.pkt_count_system.cpu.icache.mem_side::system.mem_ctrls.port       268165                       # Packet count per connected master and slave (bytes)
system.membus.pkt_count_system.cpu.icache.mem_side::total       268165                       # Packet count per connected master and slave (bytes)
system.membus.pkt_count_system.cpu.dcache.mem_side::system.bridge.slave          416                       # Packet count per connected master and slave (bytes)
system.membus.pkt_count_system.cpu.dcache.mem_side::system.mem_ctrls.port       209879                       # Packet count per connected master and slave (bytes)
system.membus.pkt_count_system.cpu.dcache.mem_side::system.membus.badaddr_responder.pio            4                       # Packet count per connected master and slave (bytes)
system.membus.pkt_count_system.cpu.dcache.mem_side::total       210299                       # Packet count per connected master and slave (bytes)
system.membus.pkt_count::total                 478838                       # Packet count per connected master and slave (bytes)
system.membus.pkt_size_system.iocache.mem_side::system.mem_ctrls.port        11264                       # Cumulative packet size per connected master and slave (bytes)
system.membus.pkt_size_system.iocache.mem_side::total        11264                       # Cumulative packet size per connected master and slave (bytes)
system.membus.pkt_size_system.cpu.icache.mem_side::system.mem_ctrls.port     11427712                       # Cumulative packet size per connected master and slave (bytes)
system.membus.pkt_size_system.cpu.icache.mem_side::total     11427712                       # Cumulative packet size per connected master and slave (bytes)
system.membus.pkt_size_system.cpu.dcache.mem_side::system.bridge.slave          441                       # Cumulative packet size per connected master and slave (bytes)
system.membus.pkt_size_system.cpu.dcache.mem_side::system.mem_ctrls.port      6720384                       # Cumulative packet size per connected master and slave (bytes)
system.membus.pkt_size_system.cpu.dcache.mem_side::total      6720825                       # Cumulative packet size per connected master and slave (bytes)
system.membus.pkt_size::total                18159801                       # Cumulative packet size per connected master and slave (bytes)
system.membus.snoops                               69                       # Total snoops (count)
system.membus.snoopTraffic                       4416                       # Total snoop traffic (bytes)
system.membus.snoop_fanout::samples            160323                       # Request fanout histogram
system.membus.snoop_fanout::mean             0.002763                       # Request fanout histogram
system.membus.snoop_fanout::stdev            0.052493                       # Request fanout histogram
system.membus.snoop_fanout::underflows              0      0.00%      0.00% # Request fanout histogram
system.membus.snoop_fanout::0                  159880     99.72%     99.72% # Request fanout histogram
system.membus.snoop_fanout::1                     443      0.28%    100.00% # Request fanout histogram
system.membus.snoop_fanout::2                       0      0.00%    100.00% # Request fanout histogram
system.membus.snoop_fanout::3                       0      0.00%    100.00% # Request fanout histogram
system.membus.snoop_fanout::overflows               0      0.00%    100.00% # Request fanout histogram
system.membus.snoop_fanout::min_value               0                       # Request fanout histogram
system.membus.snoop_fanout::max_value               1                       # Request fanout histogram
system.membus.snoop_fanout::total              160323                       # Request fanout histogram
system.membus.reqLayer0.occupancy              350500                       # Layer occupancy (ticks)
system.membus.reqLayer0.utilization               0.0                       # Layer utilization (%)
system.membus.reqLayer1.occupancy           837699036                       # Layer occupancy (ticks)
system.membus.reqLayer1.utilization               6.9                       # Layer utilization (%)
system.membus.reqLayer2.occupancy                3000                       # Layer occupancy (ticks)
system.membus.reqLayer2.utilization               0.0                       # Layer utilization (%)
system.membus.respLayer1.occupancy              17997                       # Layer occupancy (ticks)
system.membus.respLayer1.utilization              0.0                       # Layer utilization (%)
system.membus.respLayer3.occupancy          378196250                       # Layer occupancy (ticks)
system.membus.respLayer3.utilization              3.1                       # Layer utilization (%)
system.membus.badaddr_responder.pwrStateResidencyTicks::UNDEFINED 2542162050500                       # Cumulative time (in ticks) in various power states
system.membus.respLayer2.occupancy          475164000                       # Layer occupancy (ticks)
system.membus.respLayer2.utilization              3.9                       # Layer utilization (%)
system.clk_domain.clock                          1000                       # Clock period in ticks
system.tsunami.fake_uart1.pwrStateResidencyTicks::UNDEFINED 2542162050500                       # Cumulative time (in ticks) in various power states
system.tsunami.fake_uart2.pwrStateResidencyTicks::UNDEFINED 2542162050500                       # Cumulative time (in ticks) in various power states
system.tsunami.fake_uart3.pwrStateResidencyTicks::UNDEFINED 2542162050500                       # Cumulative time (in ticks) in various power states
system.tsunami.fake_uart4.pwrStateResidencyTicks::UNDEFINED 2542162050500                       # Cumulative time (in ticks) in various power states
system.tsunami.fake_ppc.pwrStateResidencyTicks::UNDEFINED 2542162050500                       # Cumulative time (in ticks) in various power states
system.tsunami.cchip.pwrStateResidencyTicks::UNDEFINED 2542162050500                       # Cumulative time (in ticks) in various power states
system.tsunami.io.pwrStateResidencyTicks::UNDEFINED 2542162050500                       # Cumulative time (in ticks) in various power states
system.tsunami.pchip.pwrStateResidencyTicks::UNDEFINED 2542162050500                       # Cumulative time (in ticks) in various power states
system.tsunami.fake_ata1.pwrStateResidencyTicks::UNDEFINED 2542162050500                       # Cumulative time (in ticks) in various power states
system.tsunami.fake_ata0.pwrStateResidencyTicks::UNDEFINED 2542162050500                       # Cumulative time (in ticks) in various power states
system.tsunami.backdoor.pwrStateResidencyTicks::UNDEFINED 2542162050500                       # Cumulative time (in ticks) in various power states
system.tsunami.fake_pnp_read3.pwrStateResidencyTicks::UNDEFINED 2542162050500                       # Cumulative time (in ticks) in various power states
system.tsunami.fake_pnp_read2.pwrStateResidencyTicks::UNDEFINED 2542162050500                       # Cumulative time (in ticks) in various power states
system.tsunami.fake_pnp_read1.pwrStateResidencyTicks::UNDEFINED 2542162050500                       # Cumulative time (in ticks) in various power states
system.tsunami.fake_pnp_read0.pwrStateResidencyTicks::UNDEFINED 2542162050500                       # Cumulative time (in ticks) in various power states
system.tsunami.fake_pnp_read7.pwrStateResidencyTicks::UNDEFINED 2542162050500                       # Cumulative time (in ticks) in various power states
system.tsunami.fake_pnp_read6.pwrStateResidencyTicks::UNDEFINED 2542162050500                       # Cumulative time (in ticks) in various power states
system.tsunami.fake_pnp_read5.pwrStateResidencyTicks::UNDEFINED 2542162050500                       # Cumulative time (in ticks) in various power states
system.tsunami.fake_pnp_read4.pwrStateResidencyTicks::UNDEFINED 2542162050500                       # Cumulative time (in ticks) in various power states
system.tsunami.fake_pnp_write.pwrStateResidencyTicks::UNDEFINED 2542162050500                       # Cumulative time (in ticks) in various power states
system.tsunami.fb.pwrStateResidencyTicks::UNDEFINED 2542162050500                       # Cumulative time (in ticks) in various power states
system.tsunami.fake_pnp_addr.pwrStateResidencyTicks::UNDEFINED 2542162050500                       # Cumulative time (in ticks) in various power states
system.tsunami.fake_OROM.pwrStateResidencyTicks::UNDEFINED 2542162050500                       # Cumulative time (in ticks) in various power states
system.tsunami.uart.pwrStateResidencyTicks::UNDEFINED 2542162050500                       # Cumulative time (in ticks) in various power states
system.tsunami.fake_sm_chip.pwrStateResidencyTicks::UNDEFINED 2542162050500                       # Cumulative time (in ticks) in various power states
system.tsunami.ethernet.pwrStateResidencyTicks::UNDEFINED 2542162050500                       # Cumulative time (in ticks) in various power states
system.tsunami.ide.pwrStateResidencyTicks::UNDEFINED 2542162050500                       # Cumulative time (in ticks) in various power states
system.cpu_voltage_domain.voltage                   1                       # Voltage in Volts
system.mem_ctrls.pwrStateResidencyTicks::UNDEFINED 2542162050500                       # Cumulative time (in ticks) in various power states
system.mem_ctrls.bytes_read::.cpu.inst        5730624                       # Number of bytes read from this memory
system.mem_ctrls.bytes_read::.cpu.data        4498944                       # Number of bytes read from this memory
system.mem_ctrls.bytes_read::total           10229568                       # Number of bytes read from this memory
system.mem_ctrls.bytes_inst_read::.cpu.inst      5730624                       # Number of instructions bytes read from this memory
system.mem_ctrls.bytes_inst_read::total       5730624                       # Number of instructions bytes read from this memory
system.mem_ctrls.bytes_written::.writebacks      2232704                       # Number of bytes written to this memory
system.mem_ctrls.bytes_written::total         2232704                       # Number of bytes written to this memory
system.mem_ctrls.num_reads::.cpu.inst           89541                       # Number of read requests responded to by this memory
system.mem_ctrls.num_reads::.cpu.data           70296                       # Number of read requests responded to by this memory
system.mem_ctrls.num_reads::total              159837                       # Number of read requests responded to by this memory
system.mem_ctrls.num_writes::.writebacks        34886                       # Number of write requests responded to by this memory
system.mem_ctrls.num_writes::total              34886                       # Number of write requests responded to by this memory
system.mem_ctrls.bw_read::.cpu.inst         471570696                       # Total read bandwidth from this memory (bytes/s)
system.mem_ctrls.bw_read::.cpu.data         370216254                       # Total read bandwidth from this memory (bytes/s)
system.mem_ctrls.bw_read::total             841786950                       # Total read bandwidth from this memory (bytes/s)
system.mem_ctrls.bw_inst_read::.cpu.inst    471570696                       # Instruction read bandwidth from this memory (bytes/s)
system.mem_ctrls.bw_inst_read::total        471570696                       # Instruction read bandwidth from this memory (bytes/s)
system.mem_ctrls.bw_write::.writebacks      183728295                       # Write bandwidth from this memory (bytes/s)
system.mem_ctrls.bw_write::total            183728295                       # Write bandwidth from this memory (bytes/s)
system.mem_ctrls.bw_total::.writebacks      183728295                       # Total bandwidth to/from this memory (bytes/s)
system.mem_ctrls.bw_total::.cpu.inst        471570696                       # Total bandwidth to/from this memory (bytes/s)
system.mem_ctrls.bw_total::.cpu.data        370216254                       # Total bandwidth to/from this memory (bytes/s)
system.mem_ctrls.bw_total::total           1025515245                       # Total bandwidth to/from this memory (bytes/s)
system.mem_ctrls.avgPriority_.writebacks::samples    121661.00                       # Average QoS priority value for accepted requests
system.mem_ctrls.avgPriority_.cpu.inst::samples     79541.00                       # Average QoS priority value for accepted requests
system.mem_ctrls.avgPriority_.cpu.data::samples     69791.00                       # Average QoS priority value for accepted requests
system.mem_ctrls.priorityMinLatency      0.000000018750                       # per QoS priority minimum request to response latency (s)
system.mem_ctrls.priorityMaxLatency      0.000143916750                       # per QoS priority maximum request to response latency (s)
system.mem_ctrls.numReadWriteTurnArounds         7483                       # Number of turnarounds from READ to WRITE
system.mem_ctrls.numWriteReadTurnArounds         7483                       # Number of turnarounds from WRITE to READ
system.mem_ctrls.numStayReadState              414660                       # Number of times bus staying in READ state
system.mem_ctrls.numStayWriteState             114248                       # Number of times bus staying in WRITE state
system.mem_ctrls.readReqs                      159837                       # Number of read requests accepted
system.mem_ctrls.writeReqs                     123678                       # Number of write requests accepted
system.mem_ctrls.readBursts                    159837                       # Number of DRAM read bursts, including those serviced by the write queue
system.mem_ctrls.writeBursts                   123678                       # Number of DRAM write bursts, including those merged in the write queue
system.mem_ctrls.servicedByWrQ                  10505                       # Number of DRAM read bursts serviced by the write queue
system.mem_ctrls.mergedWrBursts                  2017                       # Number of DRAM write bursts merged with an existing one
system.mem_ctrls.neitherReadNorWriteReqs            0                       # Number of requests that are neither read nor write
system.mem_ctrls.perBankRdBursts::0              9007                       # Per bank write bursts
system.mem_ctrls.perBankRdBursts::1              6680                       # Per bank write bursts
system.mem_ctrls.perBankRdBursts::2             10338                       # Per bank write bursts
system.mem_ctrls.perBankRdBursts::3              7289                       # Per bank write bursts
system.mem_ctrls.perBankRdBursts::4              8641                       # Per bank write bursts
system.mem_ctrls.perBankRdBursts::5             10065                       # Per bank write bursts
system.mem_ctrls.perBankRdBursts::6              8841                       # Per bank write bursts
system.mem_ctrls.perBankRdBursts::7              8852                       # Per bank write bursts
system.mem_ctrls.perBankRdBursts::8             11967                       # Per bank write bursts
system.mem_ctrls.perBankRdBursts::9              9373                       # Per bank write bursts
system.mem_ctrls.perBankRdBursts::10            10805                       # Per bank write bursts
system.mem_ctrls.perBankRdBursts::11            12202                       # Per bank write bursts
system.mem_ctrls.perBankRdBursts::12             8887                       # Per bank write bursts
system.mem_ctrls.perBankRdBursts::13            13819                       # Per bank write bursts
system.mem_ctrls.perBankRdBursts::14             5602                       # Per bank write bursts
system.mem_ctrls.perBankRdBursts::15             6964                       # Per bank write bursts
system.mem_ctrls.perBankWrBursts::0              7348                       # Per bank write bursts
system.mem_ctrls.perBankWrBursts::1              4474                       # Per bank write bursts
system.mem_ctrls.perBankWrBursts::2              9067                       # Per bank write bursts
system.mem_ctrls.perBankWrBursts::3              8082                       # Per bank write bursts
system.mem_ctrls.perBankWrBursts::4              7863                       # Per bank write bursts
system.mem_ctrls.perBankWrBursts::5              9802                       # Per bank write bursts
system.mem_ctrls.perBankWrBursts::6              7646                       # Per bank write bursts
system.mem_ctrls.perBankWrBursts::7              7017                       # Per bank write bursts
system.mem_ctrls.perBankWrBursts::8             10855                       # Per bank write bursts
system.mem_ctrls.perBankWrBursts::9              8540                       # Per bank write bursts
system.mem_ctrls.perBankWrBursts::10             8152                       # Per bank write bursts
system.mem_ctrls.perBankWrBursts::11             8155                       # Per bank write bursts
system.mem_ctrls.perBankWrBursts::12             5489                       # Per bank write bursts
system.mem_ctrls.perBankWrBursts::13            10152                       # Per bank write bursts
system.mem_ctrls.perBankWrBursts::14             3204                       # Per bank write bursts
system.mem_ctrls.perBankWrBursts::15             5795                       # Per bank write bursts
system.mem_ctrls.avgRdQLen                       1.08                       # Average read queue length when enqueuing
system.mem_ctrls.avgWrQLen                      25.71                       # Average write queue length when enqueuing
system.mem_ctrls.totQLat                   2033262250                       # Total ticks spent queuing
system.mem_ctrls.totBusLat                  746660000                       # Total ticks spent in databus transfers
system.mem_ctrls.totMemAccLat              4833237250                       # Total ticks spent from burst creation until serviced by the DRAM
system.mem_ctrls.avgQLat                     13615.72                       # Average queueing delay per DRAM burst
system.mem_ctrls.avgBusLat                    5000.00                       # Average bus latency per DRAM burst
system.mem_ctrls.avgMemAccLat                32365.72                       # Average memory access latency per DRAM burst
system.mem_ctrls.numRdRetry                         0                       # Number of times read queue was full causing retry
system.mem_ctrls.numWrRetry                         0                       # Number of times write queue was full causing retry
system.mem_ctrls.readRowHits                   105680                       # Number of row buffer hits during reads
system.mem_ctrls.writeRowHits                   82138                       # Number of row buffer hits during writes
system.mem_ctrls.readRowHitRate                 70.77                       # Row buffer hit rate for reads
system.mem_ctrls.writeRowHitRate                67.51                       # Row buffer hit rate for writes
system.mem_ctrls.readPktSize::0                     0                       # Read request sizes (log2)
system.mem_ctrls.readPktSize::1                     0                       # Read request sizes (log2)
system.mem_ctrls.readPktSize::2                     0                       # Read request sizes (log2)
system.mem_ctrls.readPktSize::3                     0                       # Read request sizes (log2)
system.mem_ctrls.readPktSize::4                     0                       # Read request sizes (log2)
system.mem_ctrls.readPktSize::5                     0                       # Read request sizes (log2)
system.mem_ctrls.readPktSize::6                159837                       # Read request sizes (log2)
system.mem_ctrls.writePktSize::0                    0                       # Write request sizes (log2)
system.mem_ctrls.writePktSize::1                    0                       # Write request sizes (log2)
system.mem_ctrls.writePktSize::2                    0                       # Write request sizes (log2)
system.mem_ctrls.writePktSize::3                    0                       # Write request sizes (log2)
system.mem_ctrls.writePktSize::4                    0                       # Write request sizes (log2)
system.mem_ctrls.writePktSize::5                    0                       # Write request sizes (log2)
system.mem_ctrls.writePktSize::6               123678                       # Write request sizes (log2)
system.mem_ctrls.rdQLenPdf::0                  136874                       # What read queue length does an incoming req see
system.mem_ctrls.rdQLenPdf::1                   12149                       # What read queue length does an incoming req see
system.mem_ctrls.rdQLenPdf::2                     309                       # What read queue length does an incoming req see
system.mem_ctrls.rdQLenPdf::3                       0                       # What read queue length does an incoming req see
system.mem_ctrls.rdQLenPdf::4                       0                       # What read queue length does an incoming req see
system.mem_ctrls.rdQLenPdf::5                       0                       # What read queue length does an incoming req see
system.mem_ctrls.rdQLenPdf::6                       0                       # What read queue length does an incoming req see
system.mem_ctrls.rdQLenPdf::7                       0                       # What read queue length does an incoming req see
system.mem_ctrls.rdQLenPdf::8                       0                       # What read queue length does an incoming req see
system.mem_ctrls.rdQLenPdf::9                       0                       # What read queue length does an incoming req see
system.mem_ctrls.rdQLenPdf::10                      0                       # What read queue length does an incoming req see
system.mem_ctrls.rdQLenPdf::11                      0                       # What read queue length does an incoming req see
system.mem_ctrls.rdQLenPdf::12                      0                       # What read queue length does an incoming req see
system.mem_ctrls.rdQLenPdf::13                      0                       # What read queue length does an incoming req see
system.mem_ctrls.rdQLenPdf::14                      0                       # What read queue length does an incoming req see
system.mem_ctrls.rdQLenPdf::15                      0                       # What read queue length does an incoming req see
system.mem_ctrls.rdQLenPdf::16                      0                       # What read queue length does an incoming req see
system.mem_ctrls.rdQLenPdf::17                      0                       # What read queue length does an incoming req see
system.mem_ctrls.rdQLenPdf::18                      0                       # What read queue length does an incoming req see
system.mem_ctrls.rdQLenPdf::19                      0                       # What read queue length does an incoming req see
system.mem_ctrls.rdQLenPdf::20                      0                       # What read queue length does an incoming req see
system.mem_ctrls.rdQLenPdf::21                      0                       # What read queue length does an incoming req see
system.mem_ctrls.rdQLenPdf::22                      0                       # What read queue length does an incoming req see
system.mem_ctrls.rdQLenPdf::23                      0                       # What read queue length does an incoming req see
system.mem_ctrls.rdQLenPdf::24                      0                       # What read queue length does an incoming req see
system.mem_ctrls.rdQLenPdf::25                      0                       # What read queue length does an incoming req see
system.mem_ctrls.rdQLenPdf::26                      0                       # What read queue length does an incoming req see
system.mem_ctrls.rdQLenPdf::27                      0                       # What read queue length does an incoming req see
system.mem_ctrls.rdQLenPdf::28                      0                       # What read queue length does an incoming req see
system.mem_ctrls.rdQLenPdf::29                      0                       # What read queue length does an incoming req see
system.mem_ctrls.rdQLenPdf::30                      0                       # What read queue length does an incoming req see
system.mem_ctrls.rdQLenPdf::31                      0                       # What read queue length does an incoming req see
system.mem_ctrls.wrQLenPdf::0                       1                       # What write queue length does an incoming req see
system.mem_ctrls.wrQLenPdf::1                       1                       # What write queue length does an incoming req see
system.mem_ctrls.wrQLenPdf::2                       1                       # What write queue length does an incoming req see
system.mem_ctrls.wrQLenPdf::3                       1                       # What write queue length does an incoming req see
system.mem_ctrls.wrQLenPdf::4                       1                       # What write queue length does an incoming req see
system.mem_ctrls.wrQLenPdf::5                       1                       # What write queue length does an incoming req see
system.mem_ctrls.wrQLenPdf::6                       1                       # What write queue length does an incoming req see
system.mem_ctrls.wrQLenPdf::7                       1                       # What write queue length does an incoming req see
system.mem_ctrls.wrQLenPdf::8                       1                       # What write queue length does an incoming req see
system.mem_ctrls.wrQLenPdf::9                       1                       # What write queue length does an incoming req see
system.mem_ctrls.wrQLenPdf::10                      1                       # What write queue length does an incoming req see
system.mem_ctrls.wrQLenPdf::11                      1                       # What write queue length does an incoming req see
system.mem_ctrls.wrQLenPdf::12                      1                       # What write queue length does an incoming req see
system.mem_ctrls.wrQLenPdf::13                      1                       # What write queue length does an incoming req see
system.mem_ctrls.wrQLenPdf::14                      1                       # What write queue length does an incoming req see
system.mem_ctrls.wrQLenPdf::15                    699                       # What write queue length does an incoming req see
system.mem_ctrls.wrQLenPdf::16                    821                       # What write queue length does an incoming req see
system.mem_ctrls.wrQLenPdf::17                   6951                       # What write queue length does an incoming req see
system.mem_ctrls.wrQLenPdf::18                   7489                       # What write queue length does an incoming req see
system.mem_ctrls.wrQLenPdf::19                   7597                       # What write queue length does an incoming req see
system.mem_ctrls.wrQLenPdf::20                   7562                       # What write queue length does an incoming req see
system.mem_ctrls.wrQLenPdf::21                   7558                       # What write queue length does an incoming req see
system.mem_ctrls.wrQLenPdf::22                   7643                       # What write queue length does an incoming req see
system.mem_ctrls.wrQLenPdf::23                   7571                       # What write queue length does an incoming req see
system.mem_ctrls.wrQLenPdf::24                   7563                       # What write queue length does an incoming req see
system.mem_ctrls.wrQLenPdf::25                   7544                       # What write queue length does an incoming req see
system.mem_ctrls.wrQLenPdf::26                   7568                       # What write queue length does an incoming req see
system.mem_ctrls.wrQLenPdf::27                   7521                       # What write queue length does an incoming req see
system.mem_ctrls.wrQLenPdf::28                   7525                       # What write queue length does an incoming req see
system.mem_ctrls.wrQLenPdf::29                   7512                       # What write queue length does an incoming req see
system.mem_ctrls.wrQLenPdf::30                   7484                       # What write queue length does an incoming req see
system.mem_ctrls.wrQLenPdf::31                   7480                       # What write queue length does an incoming req see
system.mem_ctrls.wrQLenPdf::32                   7481                       # What write queue length does an incoming req see
system.mem_ctrls.wrQLenPdf::33                     11                       # What write queue length does an incoming req see
system.mem_ctrls.wrQLenPdf::34                      8                       # What write queue length does an incoming req see
system.mem_ctrls.wrQLenPdf::35                      6                       # What write queue length does an incoming req see
system.mem_ctrls.wrQLenPdf::36                      4                       # What write queue length does an incoming req see
system.mem_ctrls.wrQLenPdf::37                      2                       # What write queue length does an incoming req see
system.mem_ctrls.wrQLenPdf::38                      1                       # What write queue length does an incoming req see
system.mem_ctrls.wrQLenPdf::39                      1                       # What write queue length does an incoming req see
system.mem_ctrls.wrQLenPdf::40                      1                       # What write queue length does an incoming req see
system.mem_ctrls.wrQLenPdf::41                      1                       # What write queue length does an incoming req see
system.mem_ctrls.wrQLenPdf::42                      1                       # What write queue length does an incoming req see
system.mem_ctrls.wrQLenPdf::43                      1                       # What write queue length does an incoming req see
system.mem_ctrls.wrQLenPdf::44                      1                       # What write queue length does an incoming req see
system.mem_ctrls.wrQLenPdf::45                      1                       # What write queue length does an incoming req see
system.mem_ctrls.wrQLenPdf::46                      1                       # What write queue length does an incoming req see
system.mem_ctrls.wrQLenPdf::47                      1                       # What write queue length does an incoming req see
system.mem_ctrls.wrQLenPdf::48                      1                       # What write queue length does an incoming req see
system.mem_ctrls.wrQLenPdf::49                      1                       # What write queue length does an incoming req see
system.mem_ctrls.wrQLenPdf::50                      1                       # What write queue length does an incoming req see
system.mem_ctrls.wrQLenPdf::51                      1                       # What write queue length does an incoming req see
system.mem_ctrls.wrQLenPdf::52                      2                       # What write queue length does an incoming req see
system.mem_ctrls.wrQLenPdf::53                      1                       # What write queue length does an incoming req see
system.mem_ctrls.wrQLenPdf::54                      1                       # What write queue length does an incoming req see
system.mem_ctrls.wrQLenPdf::55                      8                       # What write queue length does an incoming req see
system.mem_ctrls.wrQLenPdf::56                      6                       # What write queue length does an incoming req see
system.mem_ctrls.wrQLenPdf::57                      2                       # What write queue length does an incoming req see
system.mem_ctrls.wrQLenPdf::58                      2                       # What write queue length does an incoming req see
system.mem_ctrls.wrQLenPdf::59                      6                       # What write queue length does an incoming req see
system.mem_ctrls.wrQLenPdf::60                      3                       # What write queue length does an incoming req see
system.mem_ctrls.wrQLenPdf::61                      1                       # What write queue length does an incoming req see
system.mem_ctrls.wrQLenPdf::62                      0                       # What write queue length does an incoming req see
system.mem_ctrls.wrQLenPdf::63                      0                       # What write queue length does an incoming req see
system.mem_ctrls.bytesPerActivate::samples        83144                       # Bytes accessed per row activation
system.mem_ctrls.bytesPerActivate::mean    208.557298                       # Bytes accessed per row activation
system.mem_ctrls.bytesPerActivate::gmean   140.342019                       # Bytes accessed per row activation
system.mem_ctrls.bytesPerActivate::stdev   224.451662                       # Bytes accessed per row activation
system.mem_ctrls.bytesPerActivate::0-127        35245     42.39%     42.39% # Bytes accessed per row activation
system.mem_ctrls.bytesPerActivate::128-255        24607     29.60%     71.99% # Bytes accessed per row activation
system.mem_ctrls.bytesPerActivate::256-383        10214     12.28%     84.27% # Bytes accessed per row activation
system.mem_ctrls.bytesPerActivate::384-511         4781      5.75%     90.02% # Bytes accessed per row activation
system.mem_ctrls.bytesPerActivate::512-639         2461      2.96%     92.98% # Bytes accessed per row activation
system.mem_ctrls.bytesPerActivate::640-767         1507      1.81%     94.79% # Bytes accessed per row activation
system.mem_ctrls.bytesPerActivate::768-895          896      1.08%     95.87% # Bytes accessed per row activation
system.mem_ctrls.bytesPerActivate::896-1023          617      0.74%     96.61% # Bytes accessed per row activation
system.mem_ctrls.bytesPerActivate::1024-1151         2816      3.39%    100.00% # Bytes accessed per row activation
system.mem_ctrls.bytesPerActivate::total        83144                       # Bytes accessed per row activation
system.mem_ctrls.rdPerTurnAround::samples         7483                       # Reads before turning the bus around for writes
system.mem_ctrls.rdPerTurnAround::mean      19.955499                       # Reads before turning the bus around for writes
system.mem_ctrls.rdPerTurnAround::gmean     18.359594                       # Reads before turning the bus around for writes
system.mem_ctrls.rdPerTurnAround::stdev     12.692086                       # Reads before turning the bus around for writes
system.mem_ctrls.rdPerTurnAround::0-15           1332     17.80%     17.80% # Reads before turning the bus around for writes
system.mem_ctrls.rdPerTurnAround::16-31          5668     75.75%     93.55% # Reads before turning the bus around for writes
system.mem_ctrls.rdPerTurnAround::32-47           307      4.10%     97.65% # Reads before turning the bus around for writes
system.mem_ctrls.rdPerTurnAround::48-63            75      1.00%     98.65% # Reads before turning the bus around for writes
system.mem_ctrls.rdPerTurnAround::64-79            37      0.49%     99.14% # Reads before turning the bus around for writes
system.mem_ctrls.rdPerTurnAround::80-95            21      0.28%     99.43% # Reads before turning the bus around for writes
system.mem_ctrls.rdPerTurnAround::96-111           14      0.19%     99.61% # Reads before turning the bus around for writes
system.mem_ctrls.rdPerTurnAround::112-127           13      0.17%     99.79% # Reads before turning the bus around for writes
system.mem_ctrls.rdPerTurnAround::128-143            6      0.08%     99.87% # Reads before turning the bus around for writes
system.mem_ctrls.rdPerTurnAround::144-159            5      0.07%     99.93% # Reads before turning the bus around for writes
system.mem_ctrls.rdPerTurnAround::160-175            2      0.03%     99.96% # Reads before turning the bus around for writes
system.mem_ctrls.rdPerTurnAround::176-191            1      0.01%     99.97% # Reads before turning the bus around for writes
system.mem_ctrls.rdPerTurnAround::256-271            1      0.01%     99.99% # Reads before turning the bus around for writes
system.mem_ctrls.rdPerTurnAround::416-431            1      0.01%    100.00% # Reads before turning the bus around for writes
system.mem_ctrls.rdPerTurnAround::total          7483                       # Reads before turning the bus around for writes
system.mem_ctrls.wrPerTurnAround::samples         7483                       # Writes before turning the bus around for reads
system.mem_ctrls.wrPerTurnAround::mean      16.255646                       # Writes before turning the bus around for reads
system.mem_ctrls.wrPerTurnAround::gmean     16.238949                       # Writes before turning the bus around for reads
system.mem_ctrls.wrPerTurnAround::stdev      0.771549                       # Writes before turning the bus around for reads
system.mem_ctrls.wrPerTurnAround::16             6645     88.80%     88.80% # Writes before turning the bus around for reads
system.mem_ctrls.wrPerTurnAround::17              102      1.36%     90.16% # Writes before turning the bus around for reads
system.mem_ctrls.wrPerTurnAround::18              480      6.41%     96.58% # Writes before turning the bus around for reads
system.mem_ctrls.wrPerTurnAround::19              185      2.47%     99.05% # Writes before turning the bus around for reads
system.mem_ctrls.wrPerTurnAround::20               64      0.86%     99.91% # Writes before turning the bus around for reads
system.mem_ctrls.wrPerTurnAround::21                3      0.04%     99.95% # Writes before turning the bus around for reads
system.mem_ctrls.wrPerTurnAround::22                3      0.04%     99.99% # Writes before turning the bus around for reads
system.mem_ctrls.wrPerTurnAround::23                1      0.01%    100.00% # Writes before turning the bus around for reads
system.mem_ctrls.wrPerTurnAround::total          7483                       # Writes before turning the bus around for reads
system.mem_ctrls.bytesReadDRAM                9557248                       # Total number of bytes read from DRAM
system.mem_ctrls.bytesReadWrQ                  672320                       # Total number of bytes read from write queue
system.mem_ctrls.bytesWritten                 7785024                       # Total number of bytes written to DRAM
system.mem_ctrls.bytesReadSys                10229568                       # Total read bytes from the system interface side
system.mem_ctrls.bytesWrittenSys              7915392                       # Total written bytes from the system interface side
system.mem_ctrls.avgRdBW                       786.46                       # Average DRAM read bandwidth in MiByte/s
system.mem_ctrls.avgWrBW                       640.63                       # Average achieved write bandwidth in MiByte/s
system.mem_ctrls.avgRdBWSys                    841.79                       # Average system read bandwidth in MiByte/s
system.mem_ctrls.avgWrBWSys                    651.35                       # Average system write bandwidth in MiByte/s
system.mem_ctrls.peakBW                      12800.00                       # Theoretical peak bandwidth in MiByte/s
system.mem_ctrls.busUtil                        11.15                       # Data bus utilization in percentage
system.mem_ctrls.busUtilRead                     6.14                       # Data bus utilization in percentage for reads
system.mem_ctrls.busUtilWrite                    5.00                       # Data bus utilization in percentage for writes
system.mem_ctrls.totGap                   12152200500                       # Total gap between requests
system.mem_ctrls.avgGap                      42862.64                       # Average gap between requests
system.mem_ctrls.masterReadBytes::.cpu.inst      5090624                       # Per-master bytes read from memory
system.mem_ctrls.masterReadBytes::.cpu.data      4466624                       # Per-master bytes read from memory
system.mem_ctrls.masterWriteBytes::.writebacks      7785024                       # Per-master bytes write to memory
[...]
system.cpu.icache.tags.occ_percent::.cpu.inst            1                       # Average percentage of cache occupancy
system.cpu.icache.tags.occ_percent::total            1                       # Average percentage of cache occupancy
system.cpu.icache.tags.occ_task_id_blocks::1024          512                       # Occupied blocks per task id
system.cpu.icache.tags.age_task_id_blocks_1024::0           19                       # Occupied blocks per task id
system.cpu.icache.tags.age_task_id_blocks_1024::1          435                       # Occupied blocks per task id
system.cpu.icache.tags.age_task_id_blocks_1024::2           55                       # Occupied blocks per task id
system.cpu.icache.tags.age_task_id_blocks_1024::3            3                       # Occupied blocks per task id
system.cpu.icache.tags.occ_task_id_percent::1024            1                       # Percentage of cache occupancy per task id
system.cpu.icache.tags.tag_accesses         249013693                       # Number of tag accesses
system.cpu.icache.tags.data_accesses        249013693                       # Number of data accesses
system.cpu.dcache.pwrStateResidencyTicks::UNDEFINED 649652536000                       # Cumulative time (in ticks) in various power states
system.cpu.dcache.demand_hits::.cpu.data    169940084                       # number of demand (read+write) hits
system.cpu.dcache.demand_hits::total        169940084                       # number of demand (read+write) hits
system.cpu.dcache.overall_hits::.cpu.data    169940084                       # number of overall hits
system.cpu.dcache.overall_hits::total       169940084                       # number of overall hits
system.cpu.dcache.demand_misses::.cpu.data       556646                       # number of demand (read+write) misses
system.cpu.dcache.demand_misses::total         556646                       # number of demand (read+write) misses
system.cpu.dcache.overall_misses::.cpu.data       556646                       # number of overall misses
system.cpu.dcache.overall_misses::total        556646                       # number of overall misses
system.cpu.dcache.demand_miss_latency::.cpu.data  37173447500                       # number of demand (read+write) miss cycles
system.cpu.dcache.demand_miss_latency::total  37173447500                       # number of demand (read+write) miss cycles
system.cpu.dcache.overall_miss_latency::.cpu.data  37173447500                       # number of overall miss cycles
system.cpu.dcache.overall_miss_latency::total  37173447500                       # number of overall miss cycles
system.cpu.dcache.demand_accesses::.cpu.data    170496730                       # number of demand (read+write) accesses
system.cpu.dcache.demand_accesses::total    170496730                       # number of demand (read+write) accesses
system.cpu.dcache.overall_accesses::.cpu.data    170496730                       # number of overall (read+write) accesses
system.cpu.dcache.overall_accesses::total    170496730                       # number of overall (read+write) accesses
system.cpu.dcache.demand_miss_rate::.cpu.data     0.003265                       # miss rate for demand accesses
system.cpu.dcache.demand_miss_rate::total     0.003265                       # miss rate for demand accesses
system.cpu.dcache.overall_miss_rate::.cpu.data     0.003265                       # miss rate for overall accesses
system.cpu.dcache.overall_miss_rate::total     0.003265                       # miss rate for overall accesses
system.cpu.dcache.demand_avg_miss_latency::.cpu.data 66781.127503                       # average overall miss latency
system.cpu.dcache.demand_avg_miss_latency::total 66781.127503                       # average overall miss latency
system.cpu.dcache.overall_avg_miss_latency::.cpu.data 66781.127503                       # average overall miss latency
system.cpu.dcache.overall_avg_miss_latency::total 66781.127503                       # average overall miss latency
system.cpu.dcache.blocked_cycles::no_mshrs            0                       # number of cycles access was blocked
system.cpu.dcache.blocked_cycles::no_targets            0                       # number of cycles access was blocked
system.cpu.dcache.blocked::no_mshrs                 0                       # number of cycles access was blocked
system.cpu.dcache.blocked::no_targets               0                       # number of cycles access was blocked
system.cpu.dcache.avg_blocked_cycles::no_mshrs          nan                       # average number of cycles each access was blocked
system.cpu.dcache.avg_blocked_cycles::no_targets          nan                       # average number of cycles each access was blocked
system.cpu.dcache.writebacks::.writebacks       209763                       # number of writebacks
system.cpu.dcache.writebacks::total            209763                       # number of writebacks
system.cpu.dcache.demand_mshr_hits::.cpu.data       143325                       # number of demand (read+write) MSHR hits
system.cpu.dcache.demand_mshr_hits::total       143325                       # number of demand (read+write) MSHR hits
system.cpu.dcache.overall_mshr_hits::.cpu.data       143325                       # number of overall MSHR hits
system.cpu.dcache.overall_mshr_hits::total       143325                       # number of overall MSHR hits
system.cpu.dcache.demand_mshr_misses::.cpu.data       413321                       # number of demand (read+write) MSHR misses
system.cpu.dcache.demand_mshr_misses::total       413321                       # number of demand (read+write) MSHR misses
system.cpu.dcache.overall_mshr_misses::.cpu.data       413321                       # number of overall MSHR misses
system.cpu.dcache.overall_mshr_misses::total       413321                       # number of overall MSHR misses
system.cpu.dcache.overall_mshr_uncacheable_misses::.cpu.data         1660                       # number of overall MSHR uncacheable misses
system.cpu.dcache.overall_mshr_uncacheable_misses::total         1660                       # number of overall MSHR uncacheable misses
system.cpu.dcache.demand_mshr_miss_latency::.cpu.data  27713442000                       # number of demand (read+write) MSHR miss cycles
system.cpu.dcache.demand_mshr_miss_latency::total  27713442000                       # number of demand (read+write) MSHR miss cycles
system.cpu.dcache.overall_mshr_miss_latency::.cpu.data  27713442000                       # number of overall MSHR miss cycles
system.cpu.dcache.overall_mshr_miss_latency::total  27713442000                       # number of overall MSHR miss cycles
system.cpu.dcache.overall_mshr_uncacheable_latency::.cpu.data     87644500                       # number of overall MSHR uncacheable cycles
system.cpu.dcache.overall_mshr_uncacheable_latency::total     87644500                       # number of overall MSHR uncacheable cycles
system.cpu.dcache.demand_mshr_miss_rate::.cpu.data     0.002424                       # mshr miss rate for demand accesses
system.cpu.dcache.demand_mshr_miss_rate::total     0.002424                       # mshr miss rate for demand accesses
system.cpu.dcache.overall_mshr_miss_rate::.cpu.data     0.002424                       # mshr miss rate for overall accesses
system.cpu.dcache.overall_mshr_miss_rate::total     0.002424                       # mshr miss rate for overall accesses
system.cpu.dcache.demand_avg_mshr_miss_latency::.cpu.data 67050.650705                       # average overall mshr miss latency
system.cpu.dcache.demand_avg_mshr_miss_latency::total 67050.650705                       # average overall mshr miss latency
system.cpu.dcache.overall_avg_mshr_miss_latency::.cpu.data 67050.650705                       # average overall mshr miss latency
system.cpu.dcache.overall_avg_mshr_miss_latency::total 67050.650705                       # average overall mshr miss latency
system.cpu.dcache.overall_avg_mshr_uncacheable_latency::.cpu.data 52797.891566                       # average overall mshr uncacheable latency
system.cpu.dcache.overall_avg_mshr_uncacheable_latency::total 52797.891566                       # average overall mshr uncacheable latency
system.cpu.dcache.replacements                 414775                       # number of replacements
system.cpu.dcache.ReadReq_hits::.cpu.data    120249570                       # number of ReadReq hits
system.cpu.dcache.ReadReq_hits::total       120249570                       # number of ReadReq hits
system.cpu.dcache.ReadReq_misses::.cpu.data       313004                       # number of ReadReq misses
system.cpu.dcache.ReadReq_misses::total        313004                       # number of ReadReq misses
system.cpu.dcache.ReadReq_miss_latency::.cpu.data  21652215500                       # number of ReadReq miss cycles
system.cpu.dcache.ReadReq_miss_latency::total  21652215500                       # number of ReadReq miss cycles
system.cpu.dcache.ReadReq_accesses::.cpu.data    120562574                       # number of ReadReq accesses(hits+misses)
system.cpu.dcache.ReadReq_accesses::total    120562574                       # number of ReadReq accesses(hits+misses)
system.cpu.dcache.ReadReq_miss_rate::.cpu.data     0.002596                       # miss rate for ReadReq accesses
system.cpu.dcache.ReadReq_miss_rate::total     0.002596                       # miss rate for ReadReq accesses
system.cpu.dcache.ReadReq_avg_miss_latency::.cpu.data 69175.523316                       # average ReadReq miss latency
system.cpu.dcache.ReadReq_avg_miss_latency::total 69175.523316                       # average ReadReq miss latency
system.cpu.dcache.ReadReq_mshr_hits::.cpu.data        35379                       # number of ReadReq MSHR hits
system.cpu.dcache.ReadReq_mshr_hits::total        35379                       # number of ReadReq MSHR hits
system.cpu.dcache.ReadReq_mshr_misses::.cpu.data       277625                       # number of ReadReq MSHR misses
system.cpu.dcache.ReadReq_mshr_misses::total       277625                       # number of ReadReq MSHR misses
system.cpu.dcache.ReadReq_mshr_uncacheable::.cpu.data          445                       # number of ReadReq MSHR uncacheable
system.cpu.dcache.ReadReq_mshr_uncacheable::total          445                       # number of ReadReq MSHR uncacheable
system.cpu.dcache.ReadReq_mshr_miss_latency::.cpu.data  18992202500                       # number of ReadReq MSHR miss cycles
system.cpu.dcache.ReadReq_mshr_miss_latency::total  18992202500                       # number of ReadReq MSHR miss cycles
system.cpu.dcache.ReadReq_mshr_uncacheable_latency::.cpu.data     87644500                       # number of ReadReq MSHR uncacheable cycles
system.cpu.dcache.ReadReq_mshr_uncacheable_latency::total     87644500                       # number of ReadReq MSHR uncacheable cycles
system.cpu.dcache.ReadReq_mshr_miss_rate::.cpu.data     0.002303                       # mshr miss rate for ReadReq accesses
system.cpu.dcache.ReadReq_mshr_miss_rate::total     0.002303                       # mshr miss rate for ReadReq accesses
system.cpu.dcache.ReadReq_avg_mshr_miss_latency::.cpu.data 68409.554255                       # average ReadReq mshr miss latency
system.cpu.dcache.ReadReq_avg_mshr_miss_latency::total 68409.554255                       # average ReadReq mshr miss latency
system.cpu.dcache.ReadReq_avg_mshr_uncacheable_latency::.cpu.data 196953.932584                       # average ReadReq mshr uncacheable latency
system.cpu.dcache.ReadReq_avg_mshr_uncacheable_latency::total 196953.932584                       # average ReadReq mshr uncacheable latency
system.cpu.dcache.WriteReq_hits::.cpu.data     49690514                       # number of WriteReq hits
system.cpu.dcache.WriteReq_hits::total       49690514                       # number of WriteReq hits
system.cpu.dcache.WriteReq_misses::.cpu.data       243642                       # number of WriteReq misses
system.cpu.dcache.WriteReq_misses::total       243642                       # number of WriteReq misses
system.cpu.dcache.WriteReq_miss_latency::.cpu.data  15521232000                       # number of WriteReq miss cycles
system.cpu.dcache.WriteReq_miss_latency::total  15521232000                       # number of WriteReq miss cycles
system.cpu.dcache.WriteReq_accesses::.cpu.data     49934156                       # number of WriteReq accesses(hits+misses)
system.cpu.dcache.WriteReq_accesses::total     49934156                       # number of WriteReq accesses(hits+misses)
system.cpu.dcache.WriteReq_miss_rate::.cpu.data     0.004879                       # miss rate for WriteReq accesses
system.cpu.dcache.WriteReq_miss_rate::total     0.004879                       # miss rate for WriteReq accesses
system.cpu.dcache.WriteReq_avg_miss_latency::.cpu.data 63705.075480                       # average WriteReq miss latency
system.cpu.dcache.WriteReq_avg_miss_latency::total 63705.075480                       # average WriteReq miss latency
system.cpu.dcache.WriteReq_mshr_hits::.cpu.data       107946                       # number of WriteReq MSHR hits
system.cpu.dcache.WriteReq_mshr_hits::total       107946                       # number of WriteReq MSHR hits
system.cpu.dcache.WriteReq_mshr_misses::.cpu.data       135696                       # number of WriteReq MSHR misses
system.cpu.dcache.WriteReq_mshr_misses::total       135696                       # number of WriteReq MSHR misses
system.cpu.dcache.WriteReq_mshr_uncacheable::.cpu.data         1215                       # number of WriteReq MSHR uncacheable
system.cpu.dcache.WriteReq_mshr_uncacheable::total         1215                       # number of WriteReq MSHR uncacheable
system.cpu.dcache.WriteReq_mshr_miss_latency::.cpu.data   8721239500                       # number of WriteReq MSHR miss cycles
system.cpu.dcache.WriteReq_mshr_miss_latency::total   8721239500                       # number of WriteReq MSHR miss cycles
system.cpu.dcache.WriteReq_mshr_miss_rate::.cpu.data     0.002717                       # mshr miss rate for WriteReq accesses
system.cpu.dcache.WriteReq_mshr_miss_rate::total     0.002717                       # mshr miss rate for WriteReq accesses
system.cpu.dcache.WriteReq_avg_mshr_miss_latency::.cpu.data 64270.424331                       # average WriteReq mshr miss latency
system.cpu.dcache.WriteReq_avg_mshr_miss_latency::total 64270.424331                       # average WriteReq mshr miss latency
system.cpu.dcache.LoadLockedReq_hits::.cpu.data        10800                       # number of LoadLockedReq hits
system.cpu.dcache.LoadLockedReq_hits::total        10800                       # number of LoadLockedReq hits
system.cpu.dcache.LoadLockedReq_misses::.cpu.data         1459                       # number of LoadLockedReq misses
system.cpu.dcache.LoadLockedReq_misses::total         1459                       # number of LoadLockedReq misses
system.cpu.dcache.LoadLockedReq_miss_latency::.cpu.data    107613500                       # number of LoadLockedReq miss cycles
system.cpu.dcache.LoadLockedReq_miss_latency::total    107613500                       # number of LoadLockedReq miss cycles
system.cpu.dcache.LoadLockedReq_accesses::.cpu.data        12259                       # number of LoadLockedReq accesses(hits+misses)
system.cpu.dcache.LoadLockedReq_accesses::total        12259                       # number of LoadLockedReq accesses(hits+misses)
system.cpu.dcache.LoadLockedReq_miss_rate::.cpu.data     0.119015                       # miss rate for LoadLockedReq accesses
system.cpu.dcache.LoadLockedReq_miss_rate::total     0.119015                       # miss rate for LoadLockedReq accesses
system.cpu.dcache.LoadLockedReq_avg_miss_latency::.cpu.data 73758.396162                       # average LoadLockedReq miss latency
system.cpu.dcache.LoadLockedReq_avg_miss_latency::total 73758.396162                       # average LoadLockedReq miss latency
system.cpu.dcache.LoadLockedReq_mshr_hits::.cpu.data            1                       # number of LoadLockedReq MSHR hits
system.cpu.dcache.LoadLockedReq_mshr_hits::total            1                       # number of LoadLockedReq MSHR hits
system.cpu.dcache.LoadLockedReq_mshr_misses::.cpu.data         1458                       # number of LoadLockedReq MSHR misses
system.cpu.dcache.LoadLockedReq_mshr_misses::total         1458                       # number of LoadLockedReq MSHR misses
system.cpu.dcache.LoadLockedReq_mshr_miss_latency::.cpu.data    106094000                       # number of LoadLockedReq MSHR miss cycles
system.cpu.dcache.LoadLockedReq_mshr_miss_latency::total    106094000                       # number of LoadLockedReq MSHR miss cycles
system.cpu.dcache.LoadLockedReq_mshr_miss_rate::.cpu.data     0.118933                       # mshr miss rate for LoadLockedReq accesses
system.cpu.dcache.LoadLockedReq_mshr_miss_rate::total     0.118933                       # mshr miss rate for LoadLockedReq accesses
system.cpu.dcache.LoadLockedReq_avg_mshr_miss_latency::.cpu.data 72766.803841                       # average LoadLockedReq mshr miss latency
system.cpu.dcache.LoadLockedReq_avg_mshr_miss_latency::total 72766.803841                       # average LoadLockedReq mshr miss latency
system.cpu.dcache.StoreCondReq_hits::.cpu.data        12237                       # number of StoreCondReq hits
system.cpu.dcache.StoreCondReq_hits::total        12237                       # number of StoreCondReq hits
system.cpu.dcache.StoreCondReq_accesses::.cpu.data        12237                       # number of StoreCondReq accesses(hits+misses)
system.cpu.dcache.StoreCondReq_accesses::total        12237                       # number of StoreCondReq accesses(hits+misses)
system.cpu.dcache.tags.pwrStateResidencyTicks::UNDEFINED 649652536000                       # Cumulative time (in ticks) in various power states
system.cpu.dcache.tags.tagsinuse                 1024                       # Cycle average of tags in use
system.cpu.dcache.tags.total_refs           170432128                       # Total number of references to valid blocks.
system.cpu.dcache.tags.sampled_refs            415799                       # Sample count of references to valid blocks.
system.cpu.dcache.tags.avg_refs            409.890664                       # Average number of references to valid blocks.
system.cpu.dcache.tags.warmup_cycle                 0                       # Cycle when the warmup percentage was hit.
system.cpu.dcache.tags.occ_blocks::.cpu.data         1024                       # Average occupied blocks per requestor
system.cpu.dcache.tags.occ_percent::.cpu.data            1                       # Average percentage of cache occupancy
system.cpu.dcache.tags.occ_percent::total            1                       # Average percentage of cache occupancy
system.cpu.dcache.tags.occ_task_id_blocks::1024         1024                       # Occupied blocks per task id
system.cpu.dcache.tags.age_task_id_blocks_1024::1           74                       # Occupied blocks per task id
system.cpu.dcache.tags.age_task_id_blocks_1024::2          164                       # Occupied blocks per task id
system.cpu.dcache.tags.age_task_id_blocks_1024::3          565                       # Occupied blocks per task id
system.cpu.dcache.tags.age_task_id_blocks_1024::4          221                       # Occupied blocks per task id
system.cpu.dcache.tags.occ_task_id_percent::1024            1                       # Percentage of cache occupancy per task id
system.cpu.dcache.tags.tag_accesses         341457227                       # Number of tag accesses
system.cpu.dcache.tags.data_accesses        341457227                       # Number of data accesses

---------- End Simulation Statistics   ----------
