
---------- Begin Simulation Statistics ----------
final_tick                               2542161256500                       # Number of ticks from beginning of simulation (restored from checkpoints and never reset)
host_inst_rate                                 227701                       # Simulator instruction rate (inst/s)
host_mem_usage                                 740736                       # Number of bytes of host memory used
host_op_rate                                   227699                       # Simulator op (including micro ops) rate (op/s)
host_seconds                                    18.45                       # Real time elapsed on the host
host_tick_rate                              658706820                       # Simulator tick rate (ticks/s)
sim_freq                                 1000000000000                       # Frequency of simulated ticks
sim_insts                                     4200448                       # Number of instructions simulated
sim_ops                                       4200448                       # Number of ops (including micro ops) simulated
sim_seconds                                  0.012151                       # Number of seconds simulated
sim_ticks                                 12151411500                       # Number of ticks simulated
system.cpu.branchPred.BTBCorrect                    0                       # Number of correct BTB predictions (this stat may not work properly.
system.cpu.branchPred.BTBHitPct             50.405467                       # BTB Hit Percentage
system.cpu.branchPred.BTBHits                  371825                       # Number of BTB hits
system.cpu.branchPred.BTBLookups               737668                       # Number of BTB lookups
system.cpu.branchPred.RASInCorrect               2667                       # Number of incorrect RAS predictions.
system.cpu.branchPred.condIncorrect            111272                       # Number of conditional branches incorrect
system.cpu.branchPred.condPredicted            939159                       # Number of conditional branches predicted
system.cpu.branchPred.indirectHits              31121                       # Number of indirect target hits.
system.cpu.branchPred.indirectLookups          208023                       # Number of indirect predictor lookups.
system.cpu.branchPred.indirectMisses           176902                       # Number of indirect misses.
system.cpu.branchPred.lookups                 1141113                       # Number of BP lookups
system.cpu.branchPred.usedRAS                   70366                       # Number of times the RAS was used to get a target.
system.cpu.branchPredindirectMispredicted        29511                       # Number of mispredicted indirect branches.
system.cpu.committedInsts                     4200448                       # Number of instructions committed
system.cpu.committedOps                       4200448                       # Number of ops (including micro ops) committed
system.cpu.cpi                               5.782484                       # CPI: cycles per instruction
system.cpu.discardedOps                        301957                       # Number of ops (including micro ops) which were discarded before commit
system.cpu.dtb.data_accesses                   618406                       # DTB accesses
system.cpu.dtb.data_acv                           129                       # DTB access violations
system.cpu.dtb.data_hits                      1477797                       # DTB hits
system.cpu.dtb.data_misses                       8286                       # DTB misses
system.cpu.dtb.fetch_accesses                       0                       # ITB accesses
system.cpu.dtb.fetch_acv                            0                       # ITB acv
system.cpu.dtb.fetch_hits                           0                       # ITB hits
system.cpu.dtb.fetch_misses                         0                       # ITB misses
system.cpu.dtb.read_accesses                   416151                       # DTB read accesses
system.cpu.dtb.read_acv                            43                       # DTB read access violations
system.cpu.dtb.read_hits                       873358                       # DTB read hits
system.cpu.dtb.read_misses                       7418                       # DTB read misses
system.cpu.dtb.write_accesses                  202255                       # DTB write accesses
system.cpu.dtb.write_acv                           86                       # DTB write access violations
system.cpu.dtb.write_hits                      604439                       # DTB write hits
system.cpu.dtb.write_misses                       868                       # DTB write misses
system.cpu.fetch2.amo_instructions                  0                       # Number of memory atomic instructions successfully decoded
system.cpu.fetch2.fp_instructions               18251                       # Number of floating point instructions successfully decoded
system.cpu.fetch2.int_instructions            3663552                       # Number of integer instructions successfully decoded
system.cpu.fetch2.load_instructions           1150038                       # Number of memory load instructions successfully decoded
system.cpu.fetch2.store_instructions           682900                       # Number of memory store instructions successfully decoded
system.cpu.fetch2.vec_instructions                  0                       # Number of SIMD instructions successfully decoded
system.cpu.idleCycles                        17090024                       # Total number of cycles that the object has spent stopped
system.cpu.ipc                               0.172936                       # IPC: instructions per cycle
system.cpu.itb.data_accesses                        0                       # DTB accesses
system.cpu.itb.data_acv                             0                       # DTB access violations
system.cpu.itb.data_hits                            0                       # DTB hits
system.cpu.itb.data_misses                          0                       # DTB misses
system.cpu.itb.fetch_accesses                  982771                       # ITB accesses
system.cpu.itb.fetch_acv                          379                       # ITB acv
system.cpu.itb.fetch_hits                      976769                       # ITB hits
system.cpu.itb.fetch_misses                      6002                       # ITB misses
system.cpu.itb.read_accesses                        0                       # DTB read accesses
system.cpu.itb.read_acv                             0                       # DTB read access violations
system.cpu.itb.read_hits                            0                       # DTB read hits
system.cpu.itb.read_misses                          0                       # DTB read misses
system.cpu.itb.write_accesses                       0                       # DTB write accesses
system.cpu.itb.write_acv                            0                       # DTB write access violations
system.cpu.itb.write_hits                           0                       # DTB write hits
system.cpu.itb.write_misses                         0                       # DTB write misses
system.cpu.kern.callpal::swpctx                   574      9.41%      9.41% # number of callpals executed
system.cpu.kern.callpal::tbi                       25      0.41%      9.82% # number of callpals executed
system.cpu.kern.callpal::swpipl                  4235     69.41%     79.23% # number of callpals executed
system.cpu.kern.callpal::rdps                      50      0.82%     80.05% # number of callpals executed
system.cpu.kern.callpal::wrusp                      4      0.07%     80.12% # number of callpals executed
system.cpu.kern.callpal::rdusp                      3      0.05%     80.17% # number of callpals executed
system.cpu.kern.callpal::rti                      897     14.70%     94.87% # number of callpals executed
system.cpu.kern.callpal::callsys                  235      3.85%     98.72% # number of callpals executed
system.cpu.kern.callpal::imb                       78      1.28%    100.00% # number of callpals executed
system.cpu.kern.callpal::total                   6101                       # number of callpals executed
system.cpu.kern.inst.arm                            0                       # number of arm instructions executed
system.cpu.kern.inst.hwrei                      14445                       # number of hwrei instructions executed
system.cpu.kern.inst.quiesce                        9                       # number of quiesce instructions executed
system.cpu.kern.ipl_count::0                     2438     47.34%     47.34% # number of times we switched to this ipl
system.cpu.kern.ipl_count::21                       5      0.10%     47.44% # number of times we switched to this ipl
system.cpu.kern.ipl_count::22                      13      0.25%     47.69% # number of times we switched to this ipl
system.cpu.kern.ipl_count::31                    2694     52.31%    100.00% # number of times we switched to this ipl
system.cpu.kern.ipl_count::total                 5150                       # number of times we switched to this ipl
system.cpu.kern.ipl_good::0                      2425     49.82%     49.82% # number of times we switched to this ipl from a different ipl
system.cpu.kern.ipl_good::21                        5      0.10%     49.92% # number of times we switched to this ipl from a different ipl
system.cpu.kern.ipl_good::22                       13      0.27%     50.18% # number of times we switched to this ipl from a different ipl
system.cpu.kern.ipl_good::31                     2425     49.82%    100.00% # number of times we switched to this ipl from a different ipl
system.cpu.kern.ipl_good::total                  4868                       # number of times we switched to this ipl from a different ipl
system.cpu.kern.ipl_ticks::0              11193573500     92.08%     92.08% # number of cycles we spent at this ipl
system.cpu.kern.ipl_ticks::21                 9234500      0.08%     92.16% # number of cycles we spent at this ipl
system.cpu.kern.ipl_ticks::22                19522500      0.16%     92.32% # number of cycles we spent at this ipl
system.cpu.kern.ipl_ticks::31               933546500      7.68%    100.00% # number of cycles we spent at this ipl
system.cpu.kern.ipl_ticks::total          12155877000                       # number of cycles we spent at this ipl
system.cpu.kern.ipl_used::0                  0.994668                       # fraction of swpipl calls that actually changed the ipl
system.cpu.kern.ipl_used::21                        1                       # fraction of swpipl calls that actually changed the ipl
system.cpu.kern.ipl_used::22                        1                       # fraction of swpipl calls that actually changed the ipl
system.cpu.kern.ipl_used::31                 0.900148                       # fraction of swpipl calls that actually changed the ipl
system.cpu.kern.ipl_used::total              0.945243                       # fraction of swpipl calls that actually changed the ipl
system.cpu.kern.mode_good::kernel                 869                      
system.cpu.kern.mode_good::user                   869                      
system.cpu.kern.mode_good::idle                     0                      
system.cpu.kern.mode_switch::kernel              1471                       # number of protection mode switches
system.cpu.kern.mode_switch::user                 869                       # number of protection mode switches
system.cpu.kern.mode_switch::idle                   0                       # number of protection mode switches
system.cpu.kern.mode_switch_good::kernel     0.590755                       # fraction of useful protection mode switches
system.cpu.kern.mode_switch_good::user              1                       # fraction of useful protection mode switches
system.cpu.kern.mode_switch_good::idle            nan                       # fraction of useful protection mode switches
system.cpu.kern.mode_switch_good::total      0.742735                       # fraction of useful protection mode switches
system.cpu.kern.mode_ticks::kernel         8201893500     67.47%     67.47% # number of ticks spent at the given mode
system.cpu.kern.mode_ticks::user           3953983500     32.53%    100.00% # number of ticks spent at the given mode
system.cpu.kern.mode_ticks::idle                    0      0.00%    100.00% # number of ticks spent at the given mode
system.cpu.kern.swap_context                      574                       # number of times the context was actually changed
system.cpu.numCycles                         24289023                       # number of cpu cycles simulated
system.cpu.numFetchSuspends                         9                       # Number of times Execute suspended instruction fetching
system.cpu.numWorkItemsCompleted                    0                       # number of work items this cpu completed
system.cpu.numWorkItemsStarted                      0                       # number of work items this cpu started
system.cpu.op_class_0::No_OpClass               85465      2.03%      2.03% # Class of committed instruction
system.cpu.op_class_0::IntAlu                 2544012     60.57%     62.60% # Class of committed instruction
system.cpu.op_class_0::IntMult                   3684      0.09%     62.69% # Class of committed instruction
system.cpu.op_class_0::IntDiv                       0      0.00%     62.69% # Class of committed instruction
system.cpu.op_class_0::FloatAdd                  8286      0.20%     62.88% # Class of committed instruction
system.cpu.op_class_0::FloatCmp                     0      0.00%     62.88% # Class of committed instruction
system.cpu.op_class_0::FloatCvt                     0      0.00%     62.88% # Class of committed instruction
system.cpu.op_class_0::FloatMult                    0      0.00%     62.88% # Class of committed instruction
system.cpu.op_class_0::FloatMultAcc                 0      0.00%     62.88% # Class of committed instruction
system.cpu.op_class_0::FloatDiv                  1593      0.04%     62.92% # Class of committed instruction
system.cpu.op_class_0::FloatMisc                    0      0.00%     62.92% # Class of committed instruction
system.cpu.op_class_0::FloatSqrt                    0      0.00%     62.92% # Class of committed instruction
system.cpu.op_class_0::SimdAdd                      0      0.00%     62.92% # Class of committed instruction
system.cpu.op_class_0::SimdAddAcc                   0      0.00%     62.92% # Class of committed instruction
system.cpu.op_class_0::SimdAlu                      0      0.00%     62.92% # Class of committed instruction
system.cpu.op_class_0::SimdCmp                      0      0.00%     62.92% # Class of committed instruction
system.cpu.op_class_0::SimdCvt                      0      0.00%     62.92% # Class of committed instruction
system.cpu.op_class_0::SimdMisc                     0      0.00%     62.92% # Class of committed instruction
system.cpu.op_class_0::SimdMult                     0      0.00%     62.92% # Class of committed instruction
system.cpu.op_class_0::SimdMultAcc                  0      0.00%     62.92% # Class of committed instruction
system.cpu.op_class_0::SimdShift                    0      0.00%     62.92% # Class of committed instruction
system.cpu.op_class_0::SimdShiftAcc                 0      0.00%     62.92% # Class of committed instruction
system.cpu.op_class_0::SimdDiv                      0      0.00%     62.92% # Class of committed instruction
system.cpu.op_class_0::SimdSqrt                     0      0.00%     62.92% # Class of committed instruction
system.cpu.op_class_0::SimdFloatAdd                 0      0.00%     62.92% # Class of committed instruction
system.cpu.op_class_0::SimdFloatAlu                 0      0.00%     62.92% # Class of committed instruction
system.cpu.op_class_0::SimdFloatCmp                 0      0.00%     62.92% # Class of committed instruction
system.cpu.op_class_0::SimdFloatCvt                 0      0.00%     62.92% # Class of committed instruction
system.cpu.op_class_0::SimdFloatDiv                 0      0.00%     62.92% # Class of committed instruction
system.cpu.op_class_0::SimdFloatMisc                0      0.00%     62.92% # Class of committed instruction
system.cpu.op_class_0::SimdFloatMult                0      0.00%     62.92% # Class of committed instruction
system.cpu.op_class_0::SimdFloatMultAcc             0      0.00%     62.92% # Class of committed instruction
system.cpu.op_class_0::SimdFloatSqrt                0      0.00%     62.92% # Class of committed instruction
system.cpu.op_class_0::SimdReduceAdd                0      0.00%     62.92% # Class of committed instruction
system.cpu.op_class_0::SimdReduceAlu                0      0.00%     62.92% # Class of committed instruction
system.cpu.op_class_0::SimdReduceCmp                0      0.00%     62.92% # Class of committed instruction
system.cpu.op_class_0::SimdFloatReduceAdd            0      0.00%     62.92% # Class of committed instruction
system.cpu.op_class_0::SimdFloatReduceCmp            0      0.00%     62.92% # Class of committed instruction
system.cpu.op_class_0::SimdAes                      0      0.00%     62.92% # Class of committed instruction
system.cpu.op_class_0::SimdAesMix                   0      0.00%     62.92% # Class of committed instruction
system.cpu.op_class_0::SimdSha1Hash                 0      0.00%     62.92% # Class of committed instruction
system.cpu.op_class_0::SimdSha1Hash2                0      0.00%     62.92% # Class of committed instruction
system.cpu.op_class_0::SimdSha256Hash               0      0.00%     62.92% # Class of committed instruction
system.cpu.op_class_0::SimdSha256Hash2              0      0.00%     62.92% # Class of committed instruction
system.cpu.op_class_0::SimdShaSigma2                0      0.00%     62.92% # Class of committed instruction
system.cpu.op_class_0::SimdShaSigma3                0      0.00%     62.92% # Class of committed instruction
system.cpu.op_class_0::SimdPredAlu                  0      0.00%     62.92% # Class of committed instruction
system.cpu.op_class_0::MemRead                 840421     20.01%     82.93% # Class of committed instruction
system.cpu.op_class_0::MemWrite                593283     14.12%     97.05% # Class of committed instruction
system.cpu.op_class_0::FloatMemRead              9988      0.24%     97.29% # Class of committed instruction
system.cpu.op_class_0::FloatMemWrite             8788      0.21%     97.50% # Class of committed instruction
system.cpu.op_class_0::IprAccess               104928      2.50%    100.00% # Class of committed instruction
system.cpu.op_class_0::InstPrefetch                 0      0.00%    100.00% # Class of committed instruction
system.cpu.op_class_0::total                  4200448                       # Class of committed instruction
system.cpu.quiesceCycles                        13800                       # Total number of cycles that CPU has spent quiesced or waiting for an interrupt
system.cpu.tickCycles                         7198999                       # Number of cycles that the object actually ticked
system.disk0.dma_read_bytes                         0                       # Number of bytes transfered via DMA reads (not PRD).
system.disk0.dma_read_full_pages                    0                       # Number of full page size DMA reads (not PRD).
system.disk0.dma_read_txs                           0                       # Number of DMA read transactions (not PRD).
system.disk0.dma_write_bytes                    12288                       # Number of bytes transfered via DMA writes.
system.disk0.dma_write_full_pages                   0                       # Number of full page size DMA writes.
system.disk0.dma_write_txs                          3                       # Number of DMA write transactions.
system.disk2.dma_read_bytes                         0                       # Number of bytes transfered via DMA reads (not PRD).
system.disk2.dma_read_full_pages                    0                       # Number of full page size DMA reads (not PRD).
system.disk2.dma_read_txs                           0                       # Number of DMA read transactions (not PRD).
system.disk2.dma_write_bytes                        0                       # Number of bytes transfered via DMA writes.
system.disk2.dma_write_full_pages                   0                       # Number of full page size DMA writes.
system.disk2.dma_write_txs                          0                       # Number of DMA write transactions.
system.membus.snoop_filter.hit_multi_requests          435                       # Number of requests hitting in the snoop filter with multiple (>1) holders of the requested data.
system.membus.snoop_filter.hit_multi_snoops            0                       # Number of snoops hitting in the snoop filter with multiple (>1) holders of the requested data.
system.membus.snoop_filter.hit_single_requests       158394                       # Number of requests hitting in the snoop filter with a single holder of the requested data.
system.membus.snoop_filter.hit_single_snoops            0                       # Number of snoops hitting in the snoop filter with a single holder of the requested data.
system.membus.snoop_filter.tot_requests        318396                       # Total number of requests made to the snoop filter.
system.membus.snoop_filter.tot_snoops               0                       # Total number of snoops made to the snoop filter.
system.tsunami.ethernet.coalescedRxDesc           nan                       # average number of RxDesc's coalesced into each post
system.tsunami.ethernet.coalescedRxIdle           nan                       # average number of RxIdle's coalesced into each post
system.tsunami.ethernet.coalescedRxOk             nan                       # average number of RxOk's coalesced into each post
system.tsunami.ethernet.coalescedRxOrn            nan                       # average number of RxOrn's coalesced into each post
system.tsunami.ethernet.coalescedSwi              nan                       # average number of Swi's coalesced into each post
system.tsunami.ethernet.coalescedTotal            nan                       # average number of interrupts coalesced into each post
system.tsunami.ethernet.coalescedTxDesc           nan                       # average number of TxDesc's coalesced into each post
system.tsunami.ethernet.coalescedTxIdle           nan                       # average number of TxIdle's coalesced into each post
system.tsunami.ethernet.coalescedTxOk             nan                       # average number of TxOk's coalesced into each post
system.tsunami.ethernet.descDMAReads                0                       # Number of descriptors the device read w/ DMA
system.tsunami.ethernet.descDMAWrites               0                       # Number of descriptors the device wrote w/ DMA
system.tsunami.ethernet.descDmaReadBytes            0                       # number of descriptor bytes read w/ DMA
system.tsunami.ethernet.descDmaWriteBytes            0                       # number of descriptor bytes write w/ DMA
system.tsunami.ethernet.droppedPackets              0                       # number of packets dropped
system.tsunami.ethernet.postedInterrupts            0                       # number of posts to CPU
system.tsunami.ethernet.postedRxDesc                0                       # number of RxDesc interrupts posted to CPU
system.tsunami.ethernet.postedRxIdle                0                       # number of rxIdle interrupts posted to CPU
system.tsunami.ethernet.postedRxOk                  0                       # number of RxOk interrupts posted to CPU
system.tsunami.ethernet.postedRxOrn                 0                       # number of RxOrn posted to CPU
system.tsunami.ethernet.postedSwi                   0                       # number of software interrupts posted to CPU
system.tsunami.ethernet.postedTxDesc                0                       # number of TxDesc interrupts posted to CPU
system.tsunami.ethernet.postedTxIdle                0                       # number of TxIdle interrupts posted to CPU
system.tsunami.ethernet.postedTxOk                  0                       # number of TxOk interrupts posted to CPU
system.tsunami.ethernet.totalRxDesc                 0                       # total number of RxDesc written to ISR
system.tsunami.ethernet.totalRxIdle                 0                       # total number of RxIdle written to ISR
system.tsunami.ethernet.totalRxOk                   0                       # total number of RxOk written to ISR
system.tsunami.ethernet.totalRxOrn                  0                       # total number of RxOrn written to ISR
system.tsunami.ethernet.totalSwi                    0                       # total number of Swi written to ISR
system.tsunami.ethernet.totalTxDesc                 0                       # total number of TxDesc written to ISR
system.tsunami.ethernet.totalTxIdle                 0                       # total number of TxIdle written to ISR
system.tsunami.ethernet.totalTxOk                   0                       # total number of TxOk written to ISR
system.bridge.pwrStateResidencyTicks::UNDEFINED 2542161256500                       # Cumulative time (in ticks) in various power states
system.voltage_domain.voltage                       1                       # Voltage in Volts
system.iocache.pwrStateResidencyTicks::UNDEFINED 2542161256500                       # Cumulative time (in ticks) in various power states
system.iocache.demand_misses::.tsunami.ide          195                       # number of demand (read+write) misses
system.iocache.demand_misses::total               195                       # number of demand (read+write) misses
system.iocache.overall_misses::.tsunami.ide          195                       # number of overall misses
system.iocache.overall_misses::total              195                       # number of overall misses
system.iocache.demand_miss_latency::.tsunami.ide     22919457                       # number of demand (read+write) miss cycles
system.iocache.demand_miss_latency::total     22919457                       # number of demand (read+write) miss cycles
system.iocache.overall_miss_latency::.tsunami.ide     22919457                       # number of overall miss cycles
system.iocache.overall_miss_latency::total     22919457                       # number of overall miss cycles
system.iocache.demand_accesses::.tsunami.ide          195                       # number of demand (read+write) accesses
system.iocache.demand_accesses::total             195                       # number of demand (read+write) accesses
system.iocache.overall_accesses::.tsunami.ide          195                       # number of overall (read+write) accesses
system.iocache.overall_accesses::total            195                       # number of overall (read+write) accesses
system.iocache.demand_miss_rate::.tsunami.ide            1                       # miss rate for demand accesses
system.iocache.demand_miss_rate::total              1                       # miss rate for demand accesses
system.iocache.overall_miss_rate::.tsunami.ide            1                       # miss rate for overall accesses
system.iocache.overall_miss_rate::total             1                       # miss rate for overall accesses
system.iocache.demand_avg_miss_latency::.tsunami.ide 117535.676923                       # average overall miss latency
system.iocache.demand_avg_miss_latency::total 117535.676923                       # average overall miss latency
system.iocache.overall_avg_miss_latency::.tsunami.ide 117535.676923                       # average overall miss latency
system.iocache.overall_avg_miss_latency::total 117535.676923                       # average overall miss latency
system.iocache.blocked_cycles::no_mshrs             0                       # number of cycles access was blocked
system.iocache.blocked_cycles::no_targets            0                       # number of cycles access was blocked
system.iocache.blocked::no_mshrs                    0                       # number of cycles access was blocked
system.iocache.blocked::no_targets                  0                       # number of cycles access was blocked
system.iocache.avg_blocked_cycles::no_mshrs          nan                       # average number of cycles each access was blocked
system.iocache.avg_blocked_cycles::no_targets          nan                       # average number of cycles each access was blocked
system.iocache.writebacks::.writebacks            176                       # number of writebacks
system.iocache.writebacks::total                  176                       # number of writebacks
system.iocache.demand_mshr_misses::.tsunami.ide          195                       # number of demand (read+write) MSHR misses
system.iocache.demand_mshr_misses::total          195                       # number of demand (read+write) MSHR misses
system.iocache.overall_mshr_misses::.tsunami.ide          195                       # number of overall MSHR misses
system.iocache.overall_mshr_misses::total          195                       # number of overall MSHR misses
system.iocache.demand_mshr_miss_latency::.tsunami.ide     13156491                       # number of demand (read+write) MSHR miss cycles
system.iocache.demand_mshr_miss_latency::total     13156491                       # number of demand (read+write) MSHR miss cycles
system.iocache.overall_mshr_miss_latency::.tsunami.ide     13156491                       # number of overall MSHR miss cycles
system.iocache.overall_mshr_miss_latency::total     13156491                       # number of overall MSHR miss cycles
system.iocache.demand_mshr_miss_rate::.tsunami.ide            1                       # mshr miss rate for demand accesses
system.iocache.demand_mshr_miss_rate::total            1                       # mshr miss rate for demand accesses
system.iocache.overall_mshr_miss_rate::.tsunami.ide            1                       # mshr miss rate for overall accesses
system.iocache.overall_mshr_miss_rate::total            1                       # mshr miss rate for overall accesses
system.iocache.demand_avg_mshr_miss_latency::.tsunami.ide 67469.184615                       # average overall mshr miss latency
system.iocache.demand_avg_mshr_miss_latency::total 67469.184615                       # average overall mshr miss latency
system.iocache.overall_avg_mshr_miss_latency::.tsunami.ide 67469.184615                       # average overall mshr miss latency
system.iocache.overall_avg_mshr_miss_latency::total 67469.184615                       # average overall mshr miss latency
system.iocache.replacements                       179                       # number of replacements
system.iocache.ReadReq_misses::.tsunami.ide            3                       # number of ReadReq misses
system.iocache.ReadReq_misses::total                3                       # number of ReadReq misses
system.iocache.ReadReq_miss_latency::.tsunami.ide       349497                       # number of ReadReq miss cycles
system.iocache.ReadReq_miss_latency::total       349497                       # number of ReadReq miss cycles
system.iocache.ReadReq_accesses::.tsunami.ide            3                       # number of ReadReq accesses(hits+misses)
system.iocache.ReadReq_accesses::total              3                       # number of ReadReq accesses(hits+misses)
system.iocache.ReadReq_miss_rate::.tsunami.ide            1                       # miss rate for ReadReq accesses
system.iocache.ReadReq_miss_rate::total             1                       # miss rate for ReadReq accesses
system.iocache.ReadReq_avg_miss_latency::.tsunami.ide       116499                       # average ReadReq miss latency
system.iocache.ReadReq_avg_miss_latency::total       116499                       # average ReadReq miss latency
system.iocache.ReadReq_mshr_misses::.tsunami.ide            3                       # number of ReadReq MSHR misses
system.iocache.ReadReq_mshr_misses::total            3                       # number of ReadReq MSHR misses
system.iocache.ReadReq_mshr_miss_latency::.tsunami.ide       199497                       # number of ReadReq MSHR miss cycles
system.iocache.ReadReq_mshr_miss_latency::total       199497                       # number of ReadReq MSHR miss cycles
system.iocache.ReadReq_mshr_miss_rate::.tsunami.ide            1                       # mshr miss rate for ReadReq accesses
system.iocache.ReadReq_mshr_miss_rate::total            1                       # mshr miss rate for ReadReq accesses
system.iocache.ReadReq_avg_mshr_miss_latency::.tsunami.ide        66499                       # average ReadReq mshr miss latency
system.iocache.ReadReq_avg_mshr_miss_latency::total        66499                       # average ReadReq mshr miss latency
system.iocache.WriteLineReq_misses::.tsunami.ide          192                       # number of WriteLineReq misses
system.iocache.WriteLineReq_misses::total          192                       # number of WriteLineReq misses
system.iocache.WriteLineReq_miss_latency::.tsunami.ide     22569960                       # number of WriteLineReq miss cycles
system.iocache.WriteLineReq_miss_latency::total     22569960                       # number of WriteLineReq miss cycles
system.iocache.WriteLineReq_accesses::.tsunami.ide          192                       # number of WriteLineReq accesses(hits+misses)
system.iocache.WriteLineReq_accesses::total          192                       # number of WriteLineReq accesses(hits+misses)
system.iocache.WriteLineReq_miss_rate::.tsunami.ide            1                       # miss rate for WriteLineReq accesses
system.iocache.WriteLineReq_miss_rate::total            1                       # miss rate for WriteLineReq accesses
system.iocache.WriteLineReq_avg_miss_latency::.tsunami.ide 117551.875000                       # average WriteLineReq miss latency
system.iocache.WriteLineReq_avg_miss_latency::total 117551.875000                       # average WriteLineReq miss latency
system.iocache.WriteLineReq_mshr_misses::.tsunami.ide          192                       # number of WriteLineReq MSHR misses
system.iocache.WriteLineReq_mshr_misses::total          192                       # number of WriteLineReq MSHR misses
system.iocache.WriteLineReq_mshr_miss_latency::.tsunami.ide     12956994                       # number of WriteLineReq MSHR miss cycles
system.iocache.WriteLineReq_mshr_miss_latency::total     12956994                       # number of WriteLineReq MSHR miss cycles
system.iocache.WriteLineReq_mshr_miss_rate::.tsunami.ide            1                       # mshr miss rate for WriteLineReq accesses
system.iocache.WriteLineReq_mshr_miss_rate::total            1                       # mshr miss rate for WriteLineReq accesses
system.iocache.WriteLineReq_avg_mshr_miss_latency::.tsunami.ide 67484.343750                       # average WriteLineReq mshr miss latency
system.iocache.WriteLineReq_avg_mshr_miss_latency::total 67484.343750                       # average WriteLineReq mshr miss latency
system.iocache.tags.pwrStateResidencyTicks::UNDEFINED 2542161256500                       # Cumulative time (in ticks) in various power states
system.iocache.tags.tagsinuse                3.299399                       # Cycle average of tags in use
system.iocache.tags.total_refs                    179                       # Total number of references to valid blocks.
system.iocache.tags.sampled_refs                  179                       # Sample count of references to valid blocks.
system.iocache.tags.avg_refs                        1                       # Average number of references to valid blocks.
system.iocache.tags.warmup_cycle         2539654406000                       # Cycle when the warmup percentage was hit.
system.iocache.tags.occ_blocks::.tsunami.ide     3.299399                       # Average occupied blocks per requestor
system.iocache.tags.occ_percent::.tsunami.ide     0.206212                       # Average percentage of cache occupancy
system.iocache.tags.occ_percent::total       0.206212                       # Average percentage of cache occupancy
system.iocache.tags.occ_task_id_blocks::1023           16                       # Occupied blocks per task id
system.iocache.tags.age_task_id_blocks_1023::3           16                       # Occupied blocks per task id
system.iocache.tags.occ_task_id_percent::1023            1                       # Percentage of cache occupancy per task id
system.iocache.tags.tag_accesses                 1755                       # Number of tag accesses
system.iocache.tags.data_accesses                1755                       # Number of data accesses
system.membus.pwrStateResidencyTicks::UNDEFINED 2542161256500                       # Cumulative time (in ticks) in various power states
system.membus.trans_dist::ReadReq                 108                       # Transaction distribution
system.membus.trans_dist::ReadResp             130935                       # Transaction distribution
system.membus.trans_dist::WriteReq                100                       # Transaction distribution
system.membus.trans_dist::WriteResp               100                       # Transaction distribution
system.membus.trans_dist::WritebackDirty        34886                       # Transaction distribution
system.membus.trans_dist::WritebackClean        88954                       # Transaction distribution
system.membus.trans_dist::CleanEvict            34534                       # Transaction distribution
system.membus.trans_dist::UpgradeReq               15                       # Transaction distribution
system.membus.trans_dist::ReadExReq             28985                       # Transaction distribution
system.membus.trans_dist::ReadExResp            28985                       # Transaction distribution
system.membus.trans_dist::ReadCleanReq          89544                       # Transaction distribution
system.membus.trans_dist::ReadSharedReq         41286                       # Transaction distribution
system.membus.trans_dist::BadAddressError            3                       # Transaction distribution
system.membus.trans_dist::InvalidateReq           192                       # Transaction distribution
system.membus.pkt_count_system.iocache.mem_side::system.mem_ctrls.port          374                       # Packet count per connected master and slave (bytes)
system.membus.pkt_count_system.iocache.mem_side::total          374                       # Packet count per connected master and slave (bytes)
system.membus.pkt_count_system.cpu.icache.mem_side::system.mem_ctrls.port       267977                       # Packet count per connected master and slave (bytes)
system.membus.pkt_count_system.cpu.icache.mem_side::total       267977                       # Packet count per connected master and slave (bytes)
system.membus.pkt_count_system.cpu.dcache.mem_side::system.bridge.slave          416                       # Packet count per connected master and slave (bytes)
system.membus.pkt_count_system.cpu.dcache.mem_side::system.mem_ctrls.port       209786                       # Packet count per connected master and slave (bytes)
system.membus.pkt_count_system.cpu.dcache.mem_side::system.membus.badaddr_responder.pio            6                       # Packet count per connected master and slave (bytes)
system.membus.pkt_count_system.cpu.dcache.mem_side::total       210208                       # Packet count per connected master and slave (bytes)
system.membus.pkt_count::total                 478559                       # Packet count per connected master and slave (bytes)
system.membus.pkt_size_system.iocache.mem_side::system.mem_ctrls.port        11264                       # Cumulative packet size per connected master and slave (bytes)
system.membus.pkt_size_system.iocache.mem_side::total        11264                       # Cumulative packet size per connected master and slave (bytes)
system.membus.pkt_size_system.cpu.icache.mem_side::system.mem_ctrls.port     11419712                       # Cumulative packet size per connected master and slave (bytes)
system.membus.pkt_size_system.cpu.icache.mem_side::total     11419712                       # Cumulative packet size per connected master and slave (bytes)
system.membus.pkt_size_system.cpu.dcache.mem_side::system.bridge.slave          441                       # Cumulative packet size per connected master and slave (bytes)
system.membus.pkt_size_system.cpu.dcache.mem_side::system.mem_ctrls.port      6718400                       # Cumulative packet size per connected master and slave (bytes)
system.membus.pkt_size_system.cpu.dcache.mem_side::total      6718841                       # Cumulative packet size per connected master and slave (bytes)
system.membus.pkt_size::total                18149817                       # Cumulative packet size per connected master and slave (bytes)
system.membus.snoops                               68                       # Total snoops (count)
system.membus.snoopTraffic                       4352                       # Total snoop traffic (bytes)
system.membus.snoop_fanout::samples            160230                       # Request fanout histogram
system.membus.snoop_fanout::mean             0.002721                       # Request fanout histogram
system.membus.snoop_fanout::stdev            0.052093                       # Request fanout histogram
system.membus.snoop_fanout::underflows              0      0.00%      0.00% # Request fanout histogram
system.membus.snoop_fanout::0                  159794     99.73%     99.73% # Request fanout histogram
system.membus.snoop_fanout::1                     436      0.27%    100.00% # Request fanout histogram
system.membus.snoop_fanout::2                       0      0.00%    100.00% # Request fanout histogram
system.membus.snoop_fanout::3                       0      0.00%    100.00% # Request fanout histogram
system.membus.snoop_fanout::overflows               0      0.00%    100.00% # Request fanout histogram
system.membus.snoop_fanout::min_value               0                       # Request fanout histogram
system.membus.snoop_fanout::max_value               1                       # Request fanout histogram
system.membus.snoop_fanout::total              160230                       # Request fanout histogram
system.membus.reqLayer0.occupancy              353000                       # Layer occupancy (ticks)
system.membus.reqLayer0.utilization               0.0                       # Layer utilization (%)
system.membus.reqLayer1.occupancy           837233037                       # Layer occupancy (ticks)
system.membus.reqLayer1.utilization               6.9                       # Layer utilization (%)
system.membus.reqLayer2.occupancy                4500                       # Layer occupancy (ticks)
system.membus.reqLayer2.utilization               0.0                       # Layer utilization (%)
system.membus.respLayer1.occupancy              17997                       # Layer occupancy (ticks)
system.membus.respLayer1.utilization              0.0                       # Layer utilization (%)
system.membus.respLayer3.occupancy          378005250                       # Layer occupancy (ticks)
system.membus.respLayer3.utilization              3.1                       # Layer utilization (%)
system.membus.badaddr_responder.pwrStateResidencyTicks::UNDEFINED 2542161256500                       # Cumulative time (in ticks) in various power states
system.membus.respLayer2.occupancy          474870000                       # Layer occupancy (ticks)
system.membus.respLayer2.utilization              3.9                       # Layer utilization (%)
system.clk_domain.clock                          1000                       # Clock period in ticks
system.tsunami.fake_uart1.pwrStateResidencyTicks::UNDEFINED 2542161256500                       # Cumulative time (in ticks) in various power states
system.tsunami.fake_uart2.pwrStateResidencyTicks::UNDEFINED 2542161256500                       # Cumulative time (in ticks) in various power states
system.tsunami.fake_uart3.pwrStateResidencyTicks::UNDEFINED 2542161256500                       # Cumulative time (in ticks) in various power states
system.tsunami.fake_uart4.pwrStateResidencyTicks::UNDEFINED 2542161256500                       # Cumulative time (in ticks) in various power states
system.tsunami.fake_ppc.pwrStateResidencyTicks::UNDEFINED 2542161256500                       # Cumulative time (in ticks) in various power states
system.tsunami.cchip.pwrStateResidencyTicks::UNDEFINED 2542161256500                       # Cumulative time (in ticks) in various power states
system.tsunami.io.pwrStateResidencyTicks::UNDEFINED 2542161256500                       # Cumulative time (in ticks) in various power states
system.tsunami.pchip.pwrStateResidencyTicks::UNDEFINED 2542161256500                       # Cumulative time (in ticks) in various power states
system.tsunami.fake_ata1.pwrStateResidencyTicks::UNDEFINED 2542161256500                       # Cumulative time (in ticks) in various power states
system.tsunami.fake_ata0.pwrStateResidencyTicks::UNDEFINED 2542161256500                       # Cumulative time (in ticks) in various power states
system.tsunami.backdoor.pwrStateResidencyTicks::UNDEFINED 2542161256500                       # Cumulative time (in ticks) in various power states
system.tsunami.fake_pnp_read3.pwrStateResidencyTicks::UNDEFINED 2542161256500                       # Cumulative time (in ticks) in various power states
system.tsunami.fake_pnp_read2.pwrStateResidencyTicks::UNDEFINED 2542161256500                       # Cumulative time (in ticks) in various power states
system.tsunami.fake_pnp_read1.pwrStateResidencyTicks::UNDEFINED 2542161256500                       # Cumulative time (in ticks) in various power states
system.tsunami.fake_pnp_read0.pwrStateResidencyTicks::UNDEFINED 2542161256500                       # Cumulative time (in ticks) in various power states
system.tsunami.fake_pnp_read7.pwrStateResidencyTicks::UNDEFINED 2542161256500                       # Cumulative time (in ticks) in various power states
system.tsunami.fake_pnp_read6.pwrStateResidencyTicks::UNDEFINED 2542161256500                       # Cumulative time (in ticks) in various power states
system.tsunami.fake_pnp_read5.pwrStateResidencyTicks::UNDEFINED 2542161256500                       # Cumulative time (in ticks) in various power states
system.tsunami.fake_pnp_read4.pwrStateResidencyTicks::UNDEFINED 2542161256500                       # Cumulative time (in ticks) in various power states
system.tsunami.fake_pnp_write.pwrStateResidencyTicks::UNDEFINED 2542161256500                       # Cumulative time (in ticks) in various power states
system.tsunami.fb.pwrStateResidencyTicks::UNDEFINED 2542161256500                       # Cumulative time (in ticks) in various power states
system.tsunami.fake_pnp_addr.pwrStateResidencyTicks::UNDEFINED 2542161256500                       # Cumulative time (in ticks) in various power states
system.tsunami.fake_OROM.pwrStateResidencyTicks::UNDEFINED 2542161256500                       # Cumulative time (in ticks) in various power states
system.tsunami.uart.pwrStateResidencyTicks::UNDEFINED 2542161256500                       # Cumulative time (in ticks) in various power states
system.tsunami.fake_sm_chip.pwrStateResidencyTicks::UNDEFINED 2542161256500                       # Cumulative time (in ticks) in various power states
system.tsunami.ethernet.pwrStateResidencyTicks::UNDEFINED 2542161256500                       # Cumulative time (in ticks) in various power states
system.tsunami.ide.pwrStateResidencyTicks::UNDEFINED 2542161256500                       # Cumulative time (in ticks) in various power states
system.cpu_voltage_domain.voltage                   1                       # Voltage in Volts
system.mem_ctrls.pwrStateResidencyTicks::UNDEFINED 2542161256500                       # Cumulative time (in ticks) in various power states
system.mem_ctrls.bytes_read::.cpu.inst        5726656                       # Number of bytes read from this memory
system.mem_ctrls.bytes_read::.cpu.data        4496960                       # Number of bytes read from this memory
system.mem_ctrls.bytes_read::total           10223616                       # Number of bytes read from this memory
system.mem_ctrls.bytes_inst_read::.cpu.inst      5726656                       # Number of instructions bytes read from this memory
system.mem_ctrls.bytes_inst_read::total       5726656                       # Number of instructions bytes read from this memory
system.mem_ctrls.bytes_written::.writebacks      2232704                       # Number of bytes written to this memory
system.mem_ctrls.bytes_written::total         2232704                       # Number of bytes written to this memory
system.mem_ctrls.num_reads::.cpu.inst           89479                       # Number of read requests responded to by this memory
system.mem_ctrls.num_reads::.cpu.data           70265                       # Number of read requests responded to by this memory
system.mem_ctrls.num_reads::total              159744                       # Number of read requests responded to by this memory
system.mem_ctrls.num_writes::.writebacks        34886                       # Number of write requests responded to by this memory
system.mem_ctrls.num_writes::total              34886                       # Number of write requests responded to by this memory
system.mem_ctrls.bw_read::.cpu.inst         471274963                       # Total read bandwidth from this memory (bytes/s)
system.mem_ctrls.bw_read::.cpu.data         370077172                       # Total read bandwidth from this memory (bytes/s)
system.mem_ctrls.bw_read::total             841352134                       # Total read bandwidth from this memory (bytes/s)
system.mem_ctrls.bw_inst_read::.cpu.inst    471274963                       # Instruction read bandwidth from this memory (bytes/s)
system.mem_ctrls.bw_inst_read::total        471274963                       # Instruction read bandwidth from this memory (bytes/s)
system.mem_ctrls.bw_write::.writebacks      183740300                       # Write bandwidth from this memory (bytes/s)
system.mem_ctrls.bw_write::total            183740300                       # Write bandwidth from this memory (bytes/s)
system.mem_ctrls.bw_total::.writebacks      183740300                       # Total bandwidth to/from this memory (bytes/s)
system.mem_ctrls.bw_total::.cpu.inst        471274963                       # Total bandwidth to/from this memory (bytes/s)
system.mem_ctrls.bw_total::.cpu.data        370077172                       # Total bandwidth to/from this memory (bytes/s)
system.mem_ctrls.bw_total::total           1025092435                       # Total bandwidth to/from this memory (bytes/s)
system.mem_ctrls.avgPriority_.writebacks::samples    121675.00                       # Average QoS priority value for accepted requests
system.mem_ctrls.avgPriority_.cpu.inst::samples     79510.00                       # Average QoS priority value for accepted requests
system.mem_ctrls.avgPriority_.cpu.data::samples     69758.00                       # Average QoS priority value for accepted requests
system.mem_ctrls.priorityMinLatency      0.000000018750                       # per QoS priority minimum request to response latency (s)
system.mem_ctrls.priorityMaxLatency      0.000143916750                       # per QoS priority maximum request to response latency (s)
system.mem_ctrls.numReadWriteTurnArounds         7489                       # Number of turnarounds from READ to WRITE
system.mem_ctrls.numWriteReadTurnArounds         7489                       # Number of turnarounds from WRITE to READ
system.mem_ctrls.numStayReadState              414403                       # Number of times bus staying in READ state
system.mem_ctrls.numStayWriteState             114260                       # Number of times bus staying in WRITE state
system.mem_ctrls.readReqs                      159744                       # Number of read requests accepted
system.mem_ctrls.writeReqs                     123623                       # Number of write requests accepted
system.mem_ctrls.readBursts                    159744                       # Number of DRAM read bursts, including those serviced by the write queue
system.mem_ctrls.writeBursts                   123623                       # Number of DRAM write bursts, including those merged in the write queue
system.mem_ctrls.servicedByWrQ                  10476                       # Number of DRAM read bursts serviced by the write queue
system.mem_ctrls.mergedWrBursts                  1948                       # Number of DRAM write bursts merged with an existing one
system.mem_ctrls.neitherReadNorWriteReqs            0                       # Number of requests that are neither read nor write
system.mem_ctrls.perBankRdBursts::0              8998                       # Per bank write bursts
system.mem_ctrls.perBankRdBursts::1              6667                       # Per bank write bursts
system.mem_ctrls.perBankRdBursts::2             10342                       # Per bank write bursts
system.mem_ctrls.perBankRdBursts::3              7293                       # Per bank write bursts
system.mem_ctrls.perBankRdBursts::4              8651                       # Per bank write bursts
system.mem_ctrls.perBankRdBursts::5             10052                       # Per bank write bursts
system.mem_ctrls.perBankRdBursts::6              8834                       # Per bank write bursts
system.mem_ctrls.perBankRdBursts::7              8837                       # Per bank write bursts
system.mem_ctrls.perBankRdBursts::8             11980                       # Per bank write bursts
system.mem_ctrls.perBankRdBursts::9              9379                       # Per bank write bursts
system.mem_ctrls.perBankRdBursts::10            10825                       # Per bank write bursts
system.mem_ctrls.perBankRdBursts::11            12182                       # Per bank write bursts
system.mem_ctrls.perBankRdBursts::12             8874                       # Per bank write bursts
system.mem_ctrls.perBankRdBursts::13            13803                       # Per bank write bursts
system.mem_ctrls.perBankRdBursts::14             5603                       # Per bank write bursts
system.mem_ctrls.perBankRdBursts::15             6948                       # Per bank write bursts
system.mem_ctrls.perBankWrBursts::0              7340                       # Per bank write bursts
system.mem_ctrls.perBankWrBursts::1              4469                       # Per bank write bursts
system.mem_ctrls.perBankWrBursts::2              9075                       # Per bank write bursts
system.mem_ctrls.perBankWrBursts::3              8099                       # Per bank write bursts
system.mem_ctrls.perBankWrBursts::4              7864                       # Per bank write bursts
system.mem_ctrls.perBankWrBursts::5              9805                       # Per bank write bursts
system.mem_ctrls.perBankWrBursts::6              7646                       # Per bank write bursts
system.mem_ctrls.perBankWrBursts::7              7013                       # Per bank write bursts
system.mem_ctrls.perBankWrBursts::8             10846                       # Per bank write bursts
system.mem_ctrls.perBankWrBursts::9              8548                       # Per bank write bursts
system.mem_ctrls.perBankWrBursts::10             8163                       # Per bank write bursts
system.mem_ctrls.perBankWrBursts::11             8146                       # Per bank write bursts
system.mem_ctrls.perBankWrBursts::12             5476                       # Per bank write bursts
system.mem_ctrls.perBankWrBursts::13            10163                       # Per bank write bursts
system.mem_ctrls.perBankWrBursts::14             3206                       # Per bank write bursts
system.mem_ctrls.perBankWrBursts::15             5791                       # Per bank write bursts
system.mem_ctrls.avgRdQLen                       1.08                       # Average read queue length when enqueuing
system.mem_ctrls.avgWrQLen                      25.72                       # Average write queue length when enqueuing
system.mem_ctrls.totQLat                   2036122500                       # Total ticks spent queuing
system.mem_ctrls.totBusLat                  746340000                       # Total ticks spent in databus transfers
system.mem_ctrls.totMemAccLat              4834897500                       # Total ticks spent from burst creation until serviced by the DRAM
system.mem_ctrls.avgQLat                     13640.72                       # Average queueing delay per DRAM burst
system.mem_ctrls.avgBusLat                    5000.00                       # Average bus latency per DRAM burst
system.mem_ctrls.avgMemAccLat                32390.72                       # Average memory access latency per DRAM burst
system.mem_ctrls.numRdRetry                         0                       # Number of times read queue was full causing retry
system.mem_ctrls.numWrRetry                         0                       # Number of times write queue was full causing retry
system.mem_ctrls.readRowHits                   105582                       # Number of row buffer hits during reads
system.mem_ctrls.writeRowHits                   82096                       # Number of row buffer hits during writes
system.mem_ctrls.readRowHitRate                 70.73                       # Row buffer hit rate for reads
system.mem_ctrls.writeRowHitRate                67.47                       # Row buffer hit rate for writes
system.mem_ctrls.readPktSize::0                     0                       # Read request sizes (log2)
system.mem_ctrls.readPktSize::1                     0                       # Read request sizes (log2)
system.mem_ctrls.readPktSize::2                     0                       # Read request sizes (log2)
system.mem_ctrls.readPktSize::3                     0                       # Read request sizes (log2)
system.mem_ctrls.readPktSize::4                     0                       # Read request sizes (log2)
system.mem_ctrls.readPktSize::5                     0                       # Read request sizes (log2)
system.mem_ctrls.readPktSize::6                159744                       # Read request sizes (log2)
system.mem_ctrls.writePktSize::0                    0                       # Write request sizes (log2)
system.mem_ctrls.writePktSize::1                    0                       # Write request sizes (log2)
system.mem_ctrls.writePktSize::2                    0                       # Write request sizes (log2)
system.mem_ctrls.writePktSize::3                    0                       # Write request sizes (log2)
system.mem_ctrls.writePktSize::4                    0                       # Write request sizes (log2)
system.mem_ctrls.writePktSize::5                    0                       # Write request sizes (log2)
system.mem_ctrls.writePktSize::6               123623                       # Write request sizes (log2)
system.mem_ctrls.rdQLenPdf::0                  136829                       # What read queue length does an incoming req see
system.mem_ctrls.rdQLenPdf::1                   12133                       # What read queue length does an incoming req see
system.mem_ctrls.rdQLenPdf::2                     306                       # What read queue length does an incoming req see
system.mem_ctrls.rdQLenPdf::3                       0                       # What read queue length does an incoming req see
system.mem_ctrls.rdQLenPdf::4                       0                       # What read queue length does an incoming req see
system.mem_ctrls.rdQLenPdf::5                       0                       # What read queue length does an incoming req see
system.mem_ctrls.rdQLenPdf::6                       0                       # What read queue length does an incoming req see
system.mem_ctrls.rdQLenPdf::7                       0                       # What read queue length does an incoming req see
system.mem_ctrls.rdQLenPdf::8                       0                       # What read queue length does an incoming req see
system.mem_ctrls.rdQLenPdf::9                       0                       # What read queue length does an incoming req see
system.mem_ctrls.rdQLenPdf::10                      0                       # What read queue length does an incoming req see
system.mem_ctrls.rdQLenPdf::11                      0                       # What read queue length does an incoming req see
system.mem_ctrls.rdQLenPdf::12                      0                       # What read queue length does an incoming req see
system.mem_ctrls.rdQLenPdf::13                      0                       # What read queue length does an incoming req see
system.mem_ctrls.rdQLenPdf::14                      0                       # What read queue length does an incoming req see
system.mem_ctrls.rdQLenPdf::15                      0                       # What read queue length does an incoming req see
system.mem_ctrls.rdQLenPdf::16                      0                       # What read queue length does an incoming req see
system.mem_ctrls.rdQLenPdf::17                      0                       # What read queue length does an incoming req see
system.mem_ctrls.rdQLenPdf::18                      0                       # What read queue length does an incoming req see
system.mem_ctrls.rdQLenPdf::19                      0                       # What read queue length does an incoming req see
system.mem_ctrls.rdQLenPdf::20                      0                       # What read queue length does an incoming req see
system.mem_ctrls.rdQLenPdf::21                      0                       # What read queue length does an incoming req see
system.mem_ctrls.rdQLenPdf::22                      0                       # What read queue length does an incoming req see
system.mem_ctrls.rdQLenPdf::23                      0                       # What read queue length does an incoming req see
system.mem_ctrls.rdQLenPdf::24                      0                       # What read queue length does an incoming req see
system.mem_ctrls.rdQLenPdf::25                      0                       # What read queue length does an incoming req see
system.mem_ctrls.rdQLenPdf::26                      0                       # What read queue length does an incoming req see
system.mem_ctrls.rdQLenPdf::27                      0                       # What read queue length does an incoming req see
system.mem_ctrls.rdQLenPdf::28                      0                       # What read queue length does an incoming req see
system.mem_ctrls.rdQLenPdf::29                      0                       # What read queue length does an incoming req see
system.mem_ctrls.rdQLenPdf::30                      0                       # What read queue length does an incoming req see
system.mem_ctrls.rdQLenPdf::31                      0                       # What read queue length does an incoming req see
system.mem_ctrls.wrQLenPdf::0                       1                       # What write queue length does an incoming req see
system.mem_ctrls.wrQLenPdf::1                       1                       # What write queue length does an incoming req see
system.mem_ctrls.wrQLenPdf::2                       1                       # What write queue length does an incoming req see
system.mem_ctrls.wrQLenPdf::3                       1                       # What write queue length does an incoming req see
system.mem_ctrls.wrQLenPdf::4                       1                       # What write queue length does an incoming req see
system.mem_ctrls.wrQLenPdf::5                       1                       # What write queue length does an incoming req see
system.mem_ctrls.wrQLenPdf::6                       1                       # What write queue length does an incoming req see
system.mem_ctrls.wrQLenPdf::7                       1                       # What write queue length does an incoming req see
system.mem_ctrls.wrQLenPdf::8                       1                       # What write queue length does an incoming req see
system.mem_ctrls.wrQLenPdf::9                       1                       # What write queue length does an incoming req see
system.mem_ctrls.wrQLenPdf::10                      1                       # What write queue length does an incoming req see
system.mem_ctrls.wrQLenPdf::11                      1                       # What write queue length does an incoming req see
system.mem_ctrls.wrQLenPdf::12                      1                       # What write queue length does an incoming req see
system.mem_ctrls.wrQLenPdf::13                      1                       # What write queue length does an incoming req see
system.mem_ctrls.wrQLenPdf::14                      1                       # What write queue length does an incoming req see
system.mem_ctrls.wrQLenPdf::15                    676                       # What write queue length does an incoming req see
system.mem_ctrls.wrQLenPdf::16                    794                       # What write queue length does an incoming req see
system.mem_ctrls.wrQLenPdf::17                   6907                       # What write queue length does an incoming req see
system.mem_ctrls.wrQLenPdf::18                   7500                       # What write queue length does an incoming req see
system.mem_ctrls.wrQLenPdf::19                   7615                       # What write queue length does an incoming req see
system.mem_ctrls.wrQLenPdf::20                   7572                       # What write queue length does an incoming req see
system.mem_ctrls.wrQLenPdf::21                   7559                       # What write queue length does an incoming req see
system.mem_ctrls.wrQLenPdf::22                   7655                       # What write queue length does an incoming req see
system.mem_ctrls.wrQLenPdf::23                   7580                       # What write queue length does an incoming req see
system.mem_ctrls.wrQLenPdf::24                   7564                       # What write queue length does an incoming req see
system.mem_ctrls.wrQLenPdf::25                   7559                       # What write queue length does an incoming req see
system.mem_ctrls.wrQLenPdf::26                   7595                       # What write queue length does an incoming req see
system.mem_ctrls.wrQLenPdf::27                   7545                       # What write queue length does an incoming req see
system.mem_ctrls.wrQLenPdf::28                   7529                       # What write queue length does an incoming req see
system.mem_ctrls.wrQLenPdf::29                   7523                       # What write queue length does an incoming req see
system.mem_ctrls.wrQLenPdf::30                   7492                       # What write queue length does an incoming req see
system.mem_ctrls.wrQLenPdf::31                   7489                       # What write queue length does an incoming req see
system.mem_ctrls.wrQLenPdf::32                   7490                       # What write queue length does an incoming req see
system.mem_ctrls.wrQLenPdf::33                      7                       # What write queue length does an incoming req see
system.mem_ctrls.wrQLenPdf::34                      5                       # What write queue length does an incoming req see
system.mem_ctrls.wrQLenPdf::35                      3                       # What write queue length does an incoming req see
system.mem_ctrls.wrQLenPdf::36                      1                       # What write queue length does an incoming req see
system.mem_ctrls.wrQLenPdf::37                      0                       # What write queue length does an incoming req see
system.mem_ctrls.wrQLenPdf::38                      0                       # What write queue length does an incoming req see
system.mem_ctrls.wrQLenPdf::39                      0                       # What write queue length does an incoming req see
system.mem_ctrls.wrQLenPdf::40                      0                       # What write queue length does an incoming req see
system.mem_ctrls.wrQLenPdf::41                      0                       # What write queue length does an incoming req see
system.mem_ctrls.wrQLenPdf::42                      0                       # What write queue length does an incoming req see
system.mem_ctrls.wrQLenPdf::43                      0                       # What write queue length does an incoming req see
system.mem_ctrls.wrQLenPdf::44                      0                       # What write queue length does an incoming req see
system.mem_ctrls.wrQLenPdf::45                      0                       # What write queue length does an incoming req see
system.mem_ctrls.wrQLenPdf::46                      0                       # What write queue length does an incoming req see
system.mem_ctrls.wrQLenPdf::47                      0                       # What write queue length does an incoming req see
system.mem_ctrls.wrQLenPdf::48                      0                       # What write queue length does an incoming req see
system.mem_ctrls.wrQLenPdf::49                      0                       # What write queue length does an incoming req see
system.mem_ctrls.wrQLenPdf::50                      0                       # What write queue length does an incoming req see
system.mem_ctrls.wrQLenPdf::51                      0                       # What write queue length does an incoming req see
system.mem_ctrls.wrQLenPdf::52                      0                       # What write queue length does an incoming req see
system.mem_ctrls.wrQLenPdf::53                      0                       # What write queue length does an incoming req see
system.mem_ctrls.wrQLenPdf::54                      0                       # What write queue length does an incoming req see
system.mem_ctrls.wrQLenPdf::55                      0                       # What write queue length does an incoming req see
system.mem_ctrls.wrQLenPdf::56                      0                       # What write queue length does an incoming req see
system.mem_ctrls.wrQLenPdf::57                      0                       # What write queue length does an incoming req see
system.mem_ctrls.wrQLenPdf::58                      0                       # What write queue length does an incoming req see
system.mem_ctrls.wrQLenPdf::59                      0                       # What write queue length does an incoming req see
system.mem_ctrls.wrQLenPdf::60                      0                       # What write queue length does an incoming req see
system.mem_ctrls.wrQLenPdf::61                      0                       # What write queue length does an incoming req see
system.mem_ctrls.wrQLenPdf::62                      0                       # What write queue length does an incoming req see
system.mem_ctrls.wrQLenPdf::63                      0                       # What write queue length does an incoming req see
system.mem_ctrls.bytesPerActivate::samples        83229                       # Bytes accessed per row activation
system.mem_ctrls.bytesPerActivate::mean    208.284324                       # Bytes accessed per row activation
system.mem_ctrls.bytesPerActivate::gmean   140.175350                       # Bytes accessed per row activation
system.mem_ctrls.bytesPerActivate::stdev   224.345954                       # Bytes accessed per row activation
system.mem_ctrls.bytesPerActivate::0-127        35315     42.43%     42.43% # Bytes accessed per row activation
system.mem_ctrls.bytesPerActivate::128-255        24657     29.63%     72.06% # Bytes accessed per row activation
system.mem_ctrls.bytesPerActivate::256-383        10238     12.30%     84.36% # Bytes accessed per row activation
system.mem_ctrls.bytesPerActivate::384-511         4742      5.70%     90.06% # Bytes accessed per row activation
system.mem_ctrls.bytesPerActivate::512-639         2456      2.95%     93.01% # Bytes accessed per row activation
system.mem_ctrls.bytesPerActivate::640-767         1495      1.80%     94.80% # Bytes accessed per row activation
system.mem_ctrls.bytesPerActivate::768-895          882      1.06%     95.86% # Bytes accessed per row activation
system.mem_ctrls.bytesPerActivate::896-1023          625      0.75%     96.61% # Bytes accessed per row activation
system.mem_ctrls.bytesPerActivate::1024-1151         2819      3.39%    100.00% # Bytes accessed per row activation
system.mem_ctrls.bytesPerActivate::total        83229                       # Bytes accessed per row activation
system.mem_ctrls.rdPerTurnAround::samples         7489                       # Reads before turning the bus around for writes
system.mem_ctrls.rdPerTurnAround::mean      19.930565                       # Reads before turning the bus around for writes
system.mem_ctrls.rdPerTurnAround::gmean     18.331998                       # Reads before turning the bus around for writes
system.mem_ctrls.rdPerTurnAround::stdev     12.711322                       # Reads before turning the bus around for writes
system.mem_ctrls.rdPerTurnAround::0-15           1344     17.95%     17.95% # Reads before turning the bus around for writes
system.mem_ctrls.rdPerTurnAround::16-31          5660     75.58%     93.52% # Reads before turning the bus around for writes
system.mem_ctrls.rdPerTurnAround::32-47           304      4.06%     97.58% # Reads before turning the bus around for writes
system.mem_ctrls.rdPerTurnAround::48-63            83      1.11%     98.69% # Reads before turning the bus around for writes
system.mem_ctrls.rdPerTurnAround::64-79            35      0.47%     99.16% # Reads before turning the bus around for writes
system.mem_ctrls.rdPerTurnAround::80-95            18      0.24%     99.40% # Reads before turning the bus around for writes
system.mem_ctrls.rdPerTurnAround::96-111           15      0.20%     99.60% # Reads before turning the bus around for writes
system.mem_ctrls.rdPerTurnAround::112-127           12      0.16%     99.76% # Reads before turning the bus around for writes
system.mem_ctrls.rdPerTurnAround::128-143            8      0.11%     99.87% # Reads before turning the bus around for writes
system.mem_ctrls.rdPerTurnAround::144-159            5      0.07%     99.93% # Reads before turning the bus around for writes
system.mem_ctrls.rdPerTurnAround::160-175            2      0.03%     99.96% # Reads before turning the bus around for writes
system.mem_ctrls.rdPerTurnAround::176-191            1      0.01%     99.97% # Reads before turning the bus around for writes
system.mem_ctrls.rdPerTurnAround::256-271            1      0.01%     99.99% # Reads before turning the bus around for writes
system.mem_ctrls.rdPerTurnAround::416-431            1      0.01%    100.00% # Reads before turning the bus around for writes
system.mem_ctrls.rdPerTurnAround::total          7489                       # Reads before turning the bus around for writes
system.mem_ctrls.wrPerTurnAround::samples         7489                       # Writes before turning the bus around for reads
system.mem_ctrls.wrPerTurnAround::mean      16.243824                       # Writes before turning the bus around for reads
system.mem_ctrls.wrPerTurnAround::gmean     16.228050                       # Writes before turning the bus around for reads
system.mem_ctrls.wrPerTurnAround::stdev      0.748822                       # Writes before turning the bus around for reads
system.mem_ctrls.wrPerTurnAround::16             6685     89.26%     89.26% # Writes before turning the bus around for reads
system.mem_ctrls.wrPerTurnAround::17               93      1.24%     90.51% # Writes before turning the bus around for reads
system.mem_ctrls.wrPerTurnAround::18              469      6.26%     96.77% # Writes before turning the bus around for reads
system.mem_ctrls.wrPerTurnAround::19              179      2.39%     99.16% # Writes before turning the bus around for reads
system.mem_ctrls.wrPerTurnAround::20               58      0.77%     99.93% # Writes before turning the bus around for reads
system.mem_ctrls.wrPerTurnAround::21                4      0.05%     99.99% # Writes before turning the bus around for reads
system.mem_ctrls.wrPerTurnAround::22                1      0.01%    100.00% # Writes before turning the bus around for reads
system.mem_ctrls.wrPerTurnAround::total          7489                       # Writes before turning the bus around for reads
system.mem_ctrls.bytesReadDRAM                9553152                       # Total number of bytes read from DRAM
system.mem_ctrls.bytesReadWrQ                  670464                       # Total number of bytes read from write queue
system.mem_ctrls.bytesWritten                 7785600                       # Total number of bytes written to DRAM
system.mem_ctrls.bytesReadSys                10223616                       # Total read bytes from the system interface side
system.mem_ctrls.bytesWrittenSys              7911872                       # Total written bytes from the system interface side
system.mem_ctrls.avgRdBW                       786.18                       # Average DRAM read bandwidth in MiByte/s
system.mem_ctrls.avgWrBW                       640.72                       # Average achieved write bandwidth in MiByte/s
system.mem_ctrls.avgRdBWSys                    841.35                       # Average system read bandwidth in MiByte/s
system.mem_ctrls.avgWrBWSys                    651.11                       # Average system write bandwidth in MiByte/s
system.mem_ctrls.peakBW                      12800.00                       # Theoretical peak bandwidth in MiByte/s
system.mem_ctrls.busUtil                        11.15                       # Data bus utilization in percentage
system.mem_ctrls.busUtilRead                     6.14                       # Data bus utilization in percentage for reads
system.mem_ctrls.busUtilWrite                    5.01                       # Data bus utilization in percentage for writes
system.mem_ctrls.totGap                   12151406500                       # Total gap between requests
system.mem_ctrls.avgGap                      42882.22                       # Average gap between requests
system.mem_ctrls.masterReadBytes::.cpu.inst      5088640                       # Per-master bytes read from memory
system.mem_ctrls.masterReadBytes::.cpu.data      4464512                       # Per-master bytes read from memory
system.mem_ctrls.masterWriteBytes::.writebacks      7785600                       # Per-master bytes write to memory
system.mem_ctrls.masterReadRate::.cpu.inst 418769457.358924925327                       # Per-master bytes read from memory rate (Bytes/sec)
[...]
system.cpu.icache.ReadReq_mshr_miss_latency::.cpu.inst  13998118500                       # number of ReadReq MSHR miss cycles
system.cpu.icache.ReadReq_mshr_miss_latency::total  13998118500                       # number of ReadReq MSHR miss cycles
system.cpu.icache.ReadReq_mshr_miss_rate::.cpu.inst     0.003279                       # mshr miss rate for ReadReq accesses
system.cpu.icache.ReadReq_mshr_miss_rate::total     0.003279                       # mshr miss rate for ReadReq accesses
system.cpu.icache.ReadReq_avg_mshr_miss_latency::.cpu.inst 23788.361339                       # average ReadReq mshr miss latency
system.cpu.icache.ReadReq_avg_mshr_miss_latency::total 23788.361339                       # average ReadReq mshr miss latency
system.cpu.icache.tags.pwrStateResidencyTicks::UNDEFINED 406133714500                       # Cumulative time (in ticks) in various power states
system.cpu.icache.tags.tagsinuse                  512                       # Cycle average of tags in use
system.cpu.icache.tags.total_refs           179514001                       # Total number of references to valid blocks.
system.cpu.icache.tags.sampled_refs            588957                       # Sample count of references to valid blocks.
system.cpu.icache.tags.avg_refs            304.799843                       # Average number of references to valid blocks.
system.cpu.icache.tags.warmup_cycle                 0                       # Cycle when the warmup percentage was hit.
system.cpu.icache.tags.occ_blocks::.cpu.inst          512                       # Average occupied blocks per requestor
system.cpu.icache.tags.occ_percent::.cpu.inst            1                       # Average percentage of cache occupancy
system.cpu.icache.tags.occ_percent::total            1                       # Average percentage of cache occupancy
system.cpu.icache.tags.occ_task_id_blocks::1024          512                       # Occupied blocks per task id
system.cpu.icache.tags.age_task_id_blocks_1024::0            2                       # Occupied blocks per task id
system.cpu.icache.tags.age_task_id_blocks_1024::2           60                       # Occupied blocks per task id
system.cpu.icache.tags.age_task_id_blocks_1024::3            9                       # Occupied blocks per task id
system.cpu.icache.tags.age_task_id_blocks_1024::4          441                       # Occupied blocks per task id
system.cpu.icache.tags.occ_task_id_percent::1024            1                       # Percentage of cache occupancy per task id
system.cpu.icache.tags.tag_accesses         359552663                       # Number of tag accesses
system.cpu.icache.tags.data_accesses        359552663                       # Number of data accesses
system.cpu.dcache.pwrStateResidencyTicks::UNDEFINED 406133714500                       # Cumulative time (in ticks) in various power states
system.cpu.dcache.demand_hits::.cpu.data    122778127                       # number of demand (read+write) hits
system.cpu.dcache.demand_hits::total        122778127                       # number of demand (read+write) hits
system.cpu.dcache.overall_hits::.cpu.data    122778127                       # number of overall hits
system.cpu.dcache.overall_hits::total       122778127                       # number of overall hits
system.cpu.dcache.demand_misses::.cpu.data       128278                       # number of demand (read+write) misses
system.cpu.dcache.demand_misses::total         128278                       # number of demand (read+write) misses
system.cpu.dcache.overall_misses::.cpu.data       128278                       # number of overall misses
system.cpu.dcache.overall_misses::total        128278                       # number of overall misses
system.cpu.dcache.demand_miss_latency::.cpu.data   8371017500                       # number of demand (read+write) miss cycles
system.cpu.dcache.demand_miss_latency::total   8371017500                       # number of demand (read+write) miss cycles
system.cpu.dcache.overall_miss_latency::.cpu.data   8371017500                       # number of overall miss cycles
system.cpu.dcache.overall_miss_latency::total   8371017500                       # number of overall miss cycles
system.cpu.dcache.demand_accesses::.cpu.data    122906405                       # number of demand (read+write) accesses
system.cpu.dcache.demand_accesses::total    122906405                       # number of demand (read+write) accesses
system.cpu.dcache.overall_accesses::.cpu.data    122906405                       # number of overall (read+write) accesses
system.cpu.dcache.overall_accesses::total    122906405                       # number of overall (read+write) accesses
system.cpu.dcache.demand_miss_rate::.cpu.data     0.001044                       # miss rate for demand accesses
system.cpu.dcache.demand_miss_rate::total     0.001044                       # miss rate for demand accesses
system.cpu.dcache.overall_miss_rate::.cpu.data     0.001044                       # miss rate for overall accesses
system.cpu.dcache.overall_miss_rate::total     0.001044                       # miss rate for overall accesses
system.cpu.dcache.demand_avg_miss_latency::.cpu.data 65256.844510                       # average overall miss latency
system.cpu.dcache.demand_avg_miss_latency::total 65256.844510                       # average overall miss latency
system.cpu.dcache.overall_avg_miss_latency::.cpu.data 65256.844510                       # average overall miss latency
system.cpu.dcache.overall_avg_miss_latency::total 65256.844510                       # average overall miss latency
system.cpu.dcache.blocked_cycles::no_mshrs            0                       # number of cycles access was blocked
system.cpu.dcache.blocked_cycles::no_targets            0                       # number of cycles access was blocked
system.cpu.dcache.blocked::no_mshrs                 0                       # number of cycles access was blocked
system.cpu.dcache.blocked::no_targets               0                       # number of cycles access was blocked
system.cpu.dcache.avg_blocked_cycles::no_mshrs          nan                       # average number of cycles each access was blocked
system.cpu.dcache.avg_blocked_cycles::no_targets          nan                       # average number of cycles each access was blocked
system.cpu.dcache.writebacks::.writebacks        19035                       # number of writebacks
system.cpu.dcache.writebacks::total             19035                       # number of writebacks
system.cpu.dcache.demand_mshr_hits::.cpu.data         4624                       # number of demand (read+write) MSHR hits
system.cpu.dcache.demand_mshr_hits::total         4624                       # number of demand (read+write) MSHR hits
system.cpu.dcache.overall_mshr_hits::.cpu.data         4624                       # number of overall MSHR hits
system.cpu.dcache.overall_mshr_hits::total         4624                       # number of overall MSHR hits
system.cpu.dcache.demand_mshr_misses::.cpu.data       123654                       # number of demand (read+write) MSHR misses
system.cpu.dcache.demand_mshr_misses::total       123654                       # number of demand (read+write) MSHR misses
system.cpu.dcache.overall_mshr_misses::.cpu.data       123654                       # number of overall MSHR misses
system.cpu.dcache.overall_mshr_misses::total       123654                       # number of overall MSHR misses
system.cpu.dcache.overall_mshr_uncacheable_misses::.cpu.data          416                       # number of overall MSHR uncacheable misses
system.cpu.dcache.overall_mshr_uncacheable_misses::total          416                       # number of overall MSHR uncacheable misses
system.cpu.dcache.demand_mshr_miss_latency::.cpu.data   8103335000                       # number of demand (read+write) MSHR miss cycles
system.cpu.dcache.demand_mshr_miss_latency::total   8103335000                       # number of demand (read+write) MSHR miss cycles
system.cpu.dcache.overall_mshr_miss_latency::.cpu.data   8103335000                       # number of overall MSHR miss cycles
system.cpu.dcache.overall_mshr_miss_latency::total   8103335000                       # number of overall MSHR miss cycles
system.cpu.dcache.demand_mshr_miss_rate::.cpu.data     0.001006                       # mshr miss rate for demand accesses
system.cpu.dcache.demand_mshr_miss_rate::total     0.001006                       # mshr miss rate for demand accesses
system.cpu.dcache.overall_mshr_miss_rate::.cpu.data     0.001006                       # mshr miss rate for overall accesses
system.cpu.dcache.overall_mshr_miss_rate::total     0.001006                       # mshr miss rate for overall accesses
system.cpu.dcache.demand_avg_mshr_miss_latency::.cpu.data 65532.332153                       # average overall mshr miss latency
system.cpu.dcache.demand_avg_mshr_miss_latency::total 65532.332153                       # average overall mshr miss latency
system.cpu.dcache.overall_avg_mshr_miss_latency::.cpu.data 65532.332153                       # average overall mshr miss latency
system.cpu.dcache.overall_avg_mshr_miss_latency::total 65532.332153                       # average overall mshr miss latency
system.cpu.dcache.replacements                 123878                       # number of replacements
system.cpu.dcache.ReadReq_hits::.cpu.data     73981945                       # number of ReadReq hits
system.cpu.dcache.ReadReq_hits::total        73981945                       # number of ReadReq hits
system.cpu.dcache.ReadReq_misses::.cpu.data       107017                       # number of ReadReq misses
system.cpu.dcache.ReadReq_misses::total        107017                       # number of ReadReq misses
system.cpu.dcache.ReadReq_miss_latency::.cpu.data   7283359500                       # number of ReadReq miss cycles
system.cpu.dcache.ReadReq_miss_latency::total   7283359500                       # number of ReadReq miss cycles
system.cpu.dcache.ReadReq_accesses::.cpu.data     74088962                       # number of ReadReq accesses(hits+misses)
system.cpu.dcache.ReadReq_accesses::total     74088962                       # number of ReadReq accesses(hits+misses)
system.cpu.dcache.ReadReq_miss_rate::.cpu.data     0.001444                       # miss rate for ReadReq accesses
system.cpu.dcache.ReadReq_miss_rate::total     0.001444                       # miss rate for ReadReq accesses
system.cpu.dcache.ReadReq_avg_miss_latency::.cpu.data 68057.967426                       # average ReadReq miss latency
system.cpu.dcache.ReadReq_avg_miss_latency::total 68057.967426                       # average ReadReq miss latency
system.cpu.dcache.ReadReq_mshr_hits::.cpu.data           47                       # number of ReadReq MSHR hits
system.cpu.dcache.ReadReq_mshr_hits::total           47                       # number of ReadReq MSHR hits
system.cpu.dcache.ReadReq_mshr_misses::.cpu.data       106970                       # number of ReadReq MSHR misses
system.cpu.dcache.ReadReq_mshr_misses::total       106970                       # number of ReadReq MSHR misses
system.cpu.dcache.ReadReq_mshr_miss_latency::.cpu.data   7172646500                       # number of ReadReq MSHR miss cycles
system.cpu.dcache.ReadReq_mshr_miss_latency::total   7172646500                       # number of ReadReq MSHR miss cycles
system.cpu.dcache.ReadReq_mshr_miss_rate::.cpu.data     0.001444                       # mshr miss rate for ReadReq accesses
system.cpu.dcache.ReadReq_mshr_miss_rate::total     0.001444                       # mshr miss rate for ReadReq accesses
system.cpu.dcache.ReadReq_avg_mshr_miss_latency::.cpu.data 67052.879312                       # average ReadReq mshr miss latency
system.cpu.dcache.ReadReq_avg_mshr_miss_latency::total 67052.879312                       # average ReadReq mshr miss latency
system.cpu.dcache.WriteReq_hits::.cpu.data     48796182                       # number of WriteReq hits
system.cpu.dcache.WriteReq_hits::total       48796182                       # number of WriteReq hits
system.cpu.dcache.WriteReq_misses::.cpu.data        21261                       # number of WriteReq misses
system.cpu.dcache.WriteReq_misses::total        21261                       # number of WriteReq misses
system.cpu.dcache.WriteReq_miss_latency::.cpu.data   1087658000                       # number of WriteReq miss cycles
system.cpu.dcache.WriteReq_miss_latency::total   1087658000                       # number of WriteReq miss cycles
system.cpu.dcache.WriteReq_accesses::.cpu.data     48817443                       # number of WriteReq accesses(hits+misses)
system.cpu.dcache.WriteReq_accesses::total     48817443                       # number of WriteReq accesses(hits+misses)
system.cpu.dcache.WriteReq_miss_rate::.cpu.data     0.000436                       # miss rate for WriteReq accesses
system.cpu.dcache.WriteReq_miss_rate::total     0.000436                       # miss rate for WriteReq accesses
system.cpu.dcache.WriteReq_avg_miss_latency::.cpu.data 51157.424392                       # average WriteReq miss latency
system.cpu.dcache.WriteReq_avg_miss_latency::total 51157.424392                       # average WriteReq miss latency
system.cpu.dcache.WriteReq_mshr_hits::.cpu.data         4577                       # number of WriteReq MSHR hits
system.cpu.dcache.WriteReq_mshr_hits::total         4577                       # number of WriteReq MSHR hits
system.cpu.dcache.WriteReq_mshr_misses::.cpu.data        16684                       # number of WriteReq MSHR misses
system.cpu.dcache.WriteReq_mshr_misses::total        16684                       # number of WriteReq MSHR misses
system.cpu.dcache.WriteReq_mshr_uncacheable::.cpu.data          416                       # number of WriteReq MSHR uncacheable
system.cpu.dcache.WriteReq_mshr_uncacheable::total          416                       # number of WriteReq MSHR uncacheable
system.cpu.dcache.WriteReq_mshr_miss_latency::.cpu.data    930688500                       # number of WriteReq MSHR miss cycles
system.cpu.dcache.WriteReq_mshr_miss_latency::total    930688500                       # number of WriteReq MSHR miss cycles
system.cpu.dcache.WriteReq_mshr_miss_rate::.cpu.data     0.000342                       # mshr miss rate for WriteReq accesses
system.cpu.dcache.WriteReq_mshr_miss_rate::total     0.000342                       # mshr miss rate for WriteReq accesses
system.cpu.dcache.WriteReq_avg_mshr_miss_latency::.cpu.data 55783.295373                       # average WriteReq mshr miss latency
system.cpu.dcache.WriteReq_avg_mshr_miss_latency::total 55783.295373                       # average WriteReq mshr miss latency
system.cpu.dcache.LoadLockedReq_hits::.cpu.data         2425                       # number of LoadLockedReq hits
system.cpu.dcache.LoadLockedReq_hits::total         2425                       # number of LoadLockedReq hits
system.cpu.dcache.LoadLockedReq_misses::.cpu.data          224                       # number of LoadLockedReq misses
system.cpu.dcache.LoadLockedReq_misses::total          224                       # number of LoadLockedReq misses
system.cpu.dcache.LoadLockedReq_miss_latency::.cpu.data     17317000                       # number of LoadLockedReq miss cycles
system.cpu.dcache.LoadLockedReq_miss_latency::total     17317000                       # number of LoadLockedReq miss cycles
system.cpu.dcache.LoadLockedReq_accesses::.cpu.data         2649                       # number of LoadLockedReq accesses(hits+misses)
system.cpu.dcache.LoadLockedReq_accesses::total         2649                       # number of LoadLockedReq accesses(hits+misses)
system.cpu.dcache.LoadLockedReq_miss_rate::.cpu.data     0.084560                       # miss rate for LoadLockedReq accesses
system.cpu.dcache.LoadLockedReq_miss_rate::total     0.084560                       # miss rate for LoadLockedReq accesses
system.cpu.dcache.LoadLockedReq_avg_miss_latency::.cpu.data 77308.035714                       # average LoadLockedReq miss latency
system.cpu.dcache.LoadLockedReq_avg_miss_latency::total 77308.035714                       # average LoadLockedReq miss latency
system.cpu.dcache.LoadLockedReq_mshr_misses::.cpu.data          224                       # number of LoadLockedReq MSHR misses
system.cpu.dcache.LoadLockedReq_mshr_misses::total          224                       # number of LoadLockedReq MSHR misses
system.cpu.dcache.LoadLockedReq_mshr_miss_latency::.cpu.data     17093000                       # number of LoadLockedReq MSHR miss cycles
system.cpu.dcache.LoadLockedReq_mshr_miss_latency::total     17093000                       # number of LoadLockedReq MSHR miss cycles
system.cpu.dcache.LoadLockedReq_mshr_miss_rate::.cpu.data     0.084560                       # mshr miss rate for LoadLockedReq accesses
system.cpu.dcache.LoadLockedReq_mshr_miss_rate::total     0.084560                       # mshr miss rate for LoadLockedReq accesses
system.cpu.dcache.LoadLockedReq_avg_mshr_miss_latency::.cpu.data 76308.035714                       # average LoadLockedReq mshr miss latency
system.cpu.dcache.LoadLockedReq_avg_mshr_miss_latency::total 76308.035714                       # average LoadLockedReq mshr miss latency
system.cpu.dcache.StoreCondReq_hits::.cpu.data         2649                       # number of StoreCondReq hits
system.cpu.dcache.StoreCondReq_hits::total         2649                       # number of StoreCondReq hits
system.cpu.dcache.StoreCondReq_accesses::.cpu.data         2649                       # number of StoreCondReq accesses(hits+misses)
system.cpu.dcache.StoreCondReq_accesses::total         2649                       # number of StoreCondReq accesses(hits+misses)
system.cpu.dcache.tags.pwrStateResidencyTicks::UNDEFINED 406133714500                       # Cumulative time (in ticks) in various power states
system.cpu.dcache.tags.tagsinuse                 1024                       # Cycle average of tags in use
system.cpu.dcache.tags.total_refs           122948281                       # Total number of references to valid blocks.
system.cpu.dcache.tags.sampled_refs            124902                       # Sample count of references to valid blocks.
system.cpu.dcache.tags.avg_refs            984.357985                       # Average number of references to valid blocks.
system.cpu.dcache.tags.warmup_cycle                 0                       # Cycle when the warmup percentage was hit.
system.cpu.dcache.tags.occ_blocks::.cpu.data         1024                       # Average occupied blocks per requestor
system.cpu.dcache.tags.occ_percent::.cpu.data            1                       # Average percentage of cache occupancy
system.cpu.dcache.tags.occ_percent::total            1                       # Average percentage of cache occupancy
system.cpu.dcache.tags.occ_task_id_blocks::1024         1024                       # Occupied blocks per task id
system.cpu.dcache.tags.age_task_id_blocks_1024::1           18                       # Occupied blocks per task id
system.cpu.dcache.tags.age_task_id_blocks_1024::2          160                       # Occupied blocks per task id
system.cpu.dcache.tags.age_task_id_blocks_1024::3          649                       # Occupied blocks per task id
system.cpu.dcache.tags.age_task_id_blocks_1024::4          197                       # Occupied blocks per task id
system.cpu.dcache.tags.occ_task_id_percent::1024            1                       # Percentage of cache occupancy per task id
system.cpu.dcache.tags.tag_accesses         245947284                       # Number of tag accesses
system.cpu.dcache.tags.data_accesses        245947284                       # Number of data accesses

---------- End Simulation Statistics   ----------
