
---------- Begin Simulation Statistics ----------
final_tick                               2541780836500                       # Number of ticks from beginning of simulation (restored from checkpoints and never reset)
host_inst_rate                                 203670                       # Simulator instruction rate (inst/s)
host_mem_usage                                 746820                       # Number of bytes of host memory used
host_op_rate                                   203669                       # Simulator op (including micro ops) rate (op/s)
host_seconds                                    20.60                       # Real time elapsed on the host
host_tick_rate                              571506999                       # Simulator tick rate (ticks/s)
sim_freq                                 1000000000000                       # Frequency of simulated ticks
sim_insts                                     4194840                       # Number of instructions simulated
sim_ops                                       4194840                       # Number of ops (including micro ops) simulated
sim_seconds                                  0.011771                       # Number of seconds simulated
sim_ticks                                 11770991500                       # Number of ticks simulated
system.cpu.branchPred.BTBCorrect                    0                       # Number of correct BTB predictions (this stat may not work properly.
system.cpu.branchPred.BTBHitPct             47.241661                       # BTB Hit Percentage
system.cpu.branchPred.BTBHits                  363937                       # Number of BTB hits
system.cpu.branchPred.BTBLookups               770373                       # Number of BTB lookups
system.cpu.branchPred.RASInCorrect               2549                       # Number of incorrect RAS predictions.
system.cpu.branchPred.condIncorrect             73473                       # Number of conditional branches incorrect
system.cpu.branchPred.condPredicted            836225                       # Number of conditional branches predicted
system.cpu.branchPred.indirectHits              50064                       # Number of indirect target hits.
system.cpu.branchPred.indirectLookups          239638                       # Number of indirect predictor lookups.
system.cpu.branchPred.indirectMisses           189574                       # Number of indirect misses.
system.cpu.branchPred.lookups                 1008431                       # Number of BP lookups
system.cpu.branchPred.usedRAS                   63362                       # Number of times the RAS was used to get a target.
system.cpu.branchPredindirectMispredicted        26153                       # Number of mispredicted indirect branches.
system.cpu.committedInsts                     4194840                       # Number of instructions committed
system.cpu.committedOps                       4194840                       # Number of ops (including micro ops) committed
system.cpu.cpi                               5.608846                       # CPI: cycles per instruction
system.cpu.discardedOps                        194447                       # Number of ops (including micro ops) which were discarded before commit
system.cpu.dtb.data_accesses                   607550                       # DTB accesses
system.cpu.dtb.data_acv                           131                       # DTB access violations
system.cpu.dtb.data_hits                      1452345                       # DTB hits
system.cpu.dtb.data_misses                       7600                       # DTB misses
system.cpu.dtb.fetch_accesses                       0                       # ITB accesses
system.cpu.dtb.fetch_acv                            0                       # ITB acv
system.cpu.dtb.fetch_hits                           0                       # ITB hits
system.cpu.dtb.fetch_misses                         0                       # ITB misses
system.cpu.dtb.read_accesses                   406117                       # DTB read accesses
system.cpu.dtb.read_acv                            43                       # DTB read access violations
system.cpu.dtb.read_hits                       849887                       # DTB read hits
system.cpu.dtb.read_misses                       6810                       # DTB read misses
system.cpu.dtb.write_accesses                  201433                       # DTB write accesses
system.cpu.dtb.write_acv                           88                       # DTB write access violations
system.cpu.dtb.write_hits                      602458                       # DTB write hits
system.cpu.dtb.write_misses                       790                       # DTB write misses
system.cpu.fetch2.amo_instructions                  0                       # Number of memory atomic instructions successfully decoded
system.cpu.fetch2.fp_instructions               18045                       # Number of floating point instructions successfully decoded
system.cpu.fetch2.int_instructions            3389144                       # Number of integer instructions successfully decoded
system.cpu.fetch2.load_instructions           1031434                       # Number of memory load instructions successfully decoded
system.cpu.fetch2.store_instructions           659213                       # Number of memory store instructions successfully decoded
system.cpu.fetch2.vec_instructions                  0                       # Number of SIMD instructions successfully decoded
system.cpu.idleCycles                        16672434                       # Total number of cycles that the object has spent stopped
system.cpu.ipc                               0.178290                       # IPC: instructions per cycle
system.cpu.itb.data_accesses                        0                       # DTB accesses
system.cpu.itb.data_acv                             0                       # DTB access violations
system.cpu.itb.data_hits                            0                       # DTB hits
system.cpu.itb.data_misses                          0                       # DTB misses
system.cpu.itb.fetch_accesses                  938847                       # ITB accesses
system.cpu.itb.fetch_acv                         1446                       # ITB acv
system.cpu.itb.fetch_hits                      932659                       # ITB hits
system.cpu.itb.fetch_misses                      6188                       # ITB misses
system.cpu.itb.read_accesses                        0                       # DTB read accesses
system.cpu.itb.read_acv                             0                       # DTB read access violations
system.cpu.itb.read_hits                            0                       # DTB read hits
system.cpu.itb.read_misses                          0                       # DTB read misses
system.cpu.itb.write_accesses                       0                       # DTB write accesses
system.cpu.itb.write_acv                            0                       # DTB write access violations
system.cpu.itb.write_hits                           0                       # DTB write hits
system.cpu.itb.write_misses                         0                       # DTB write misses
system.cpu.kern.callpal::swpctx                   574      9.47%      9.47% # number of callpals executed
system.cpu.kern.callpal::tbi                       25      0.41%      9.89% # number of callpals executed
system.cpu.kern.callpal::swpipl                  4196     69.25%     79.14% # number of callpals executed
system.cpu.kern.callpal::rdps                      48      0.79%     79.93% # number of callpals executed
system.cpu.kern.callpal::wrusp                      4      0.07%     80.00% # number of callpals executed
system.cpu.kern.callpal::rdusp                      3      0.05%     80.05% # number of callpals executed
system.cpu.kern.callpal::rti                      896     14.79%     94.83% # number of callpals executed
system.cpu.kern.callpal::callsys                  235      3.88%     98.71% # number of callpals executed
system.cpu.kern.callpal::imb                       78      1.29%    100.00% # number of callpals executed
system.cpu.kern.callpal::total                   6059                       # number of callpals executed
system.cpu.kern.inst.arm                            0                       # number of arm instructions executed
system.cpu.kern.inst.hwrei                      14402                       # number of hwrei instructions executed
system.cpu.kern.inst.quiesce                        9                       # number of quiesce instructions executed
system.cpu.kern.ipl_count::0                     2423     47.43%     47.43% # number of times we switched to this ipl
system.cpu.kern.ipl_count::21                       5      0.10%     47.52% # number of times we switched to this ipl
system.cpu.kern.ipl_count::22                      12      0.23%     47.76% # number of times we switched to this ipl
system.cpu.kern.ipl_count::31                    2669     52.24%    100.00% # number of times we switched to this ipl
system.cpu.kern.ipl_count::total                 5109                       # number of times we switched to this ipl
system.cpu.kern.ipl_good::0                      2410     49.82%     49.82% # number of times we switched to this ipl from a different ipl
system.cpu.kern.ipl_good::21                        5      0.10%     49.93% # number of times we switched to this ipl from a different ipl
system.cpu.kern.ipl_good::22                       12      0.25%     50.18% # number of times we switched to this ipl from a different ipl
system.cpu.kern.ipl_good::31                     2410     49.82%    100.00% # number of times we switched to this ipl from a different ipl
system.cpu.kern.ipl_good::total                  4837                       # number of times we switched to this ipl from a different ipl
system.cpu.kern.ipl_ticks::0              10866097000     92.28%     92.28% # number of cycles we spent at this ipl
system.cpu.kern.ipl_ticks::21                 8990000      0.08%     92.35% # number of cycles we spent at this ipl
system.cpu.kern.ipl_ticks::22                17457500      0.15%     92.50% # number of cycles we spent at this ipl
system.cpu.kern.ipl_ticks::31               882834500      7.50%    100.00% # number of cycles we spent at this ipl
system.cpu.kern.ipl_ticks::total          11775379000                       # number of cycles we spent at this ipl
system.cpu.kern.ipl_used::0                  0.994635                       # fraction of swpipl calls that actually changed the ipl
system.cpu.kern.ipl_used::21                        1                       # fraction of swpipl calls that actually changed the ipl
system.cpu.kern.ipl_used::22                        1                       # fraction of swpipl calls that actually changed the ipl
system.cpu.kern.ipl_used::31                 0.902960                       # fraction of swpipl calls that actually changed the ipl
system.cpu.kern.ipl_used::total              0.946761                       # fraction of swpipl calls that actually changed the ipl
system.cpu.kern.mode_good::kernel                 869                      
system.cpu.kern.mode_good::user                   869                      
system.cpu.kern.mode_good::idle                     0                      
system.cpu.kern.mode_switch::kernel              1470                       # number of protection mode switches
system.cpu.kern.mode_switch::user                 869                       # number of protection mode switches
system.cpu.kern.mode_switch::idle                   0                       # number of protection mode switches
system.cpu.kern.mode_switch_good::kernel     0.591156                       # fraction of useful protection mode switches
system.cpu.kern.mode_switch_good::user              1                       # fraction of useful protection mode switches
system.cpu.kern.mode_switch_good::idle            nan                       # fraction of useful protection mode switches
system.cpu.kern.mode_switch_good::total      0.743053                       # fraction of useful protection mode switches
system.cpu.kern.mode_ticks::kernel         7970317000     67.69%     67.69% # number of ticks spent at the given mode
system.cpu.kern.mode_ticks::user           3805062000     32.31%    100.00% # number of ticks spent at the given mode
system.cpu.kern.mode_ticks::idle                    0      0.00%    100.00% # number of ticks spent at the given mode
system.cpu.kern.swap_context                      574                       # number of times the context was actually changed
system.cpu.numCycles                         23528211                       # number of cpu cycles simulated
system.cpu.numFetchSuspends                         9                       # Number of times Execute suspended instruction fetching
system.cpu.numWorkItemsCompleted                    0                       # number of work items this cpu completed
system.cpu.numWorkItemsStarted                      0                       # number of work items this cpu started
system.cpu.op_class_0::No_OpClass               85414      2.04%      2.04% # Class of committed instruction
system.cpu.op_class_0::IntAlu                 2540782     60.57%     62.61% # Class of committed instruction
system.cpu.op_class_0::IntMult                   3673      0.09%     62.69% # Class of committed instruction
system.cpu.op_class_0::IntDiv                       0      0.00%     62.69% # Class of committed instruction
system.cpu.op_class_0::FloatAdd                  8286      0.20%     62.89% # Class of committed instruction
system.cpu.op_class_0::FloatCmp                     0      0.00%     62.89% # Class of committed instruction
system.cpu.op_class_0::FloatCvt                     0      0.00%     62.89% # Class of committed instruction
system.cpu.op_class_0::FloatMult                    0      0.00%     62.89% # Class of committed instruction
system.cpu.op_class_0::FloatMultAcc                 0      0.00%     62.89% # Class of committed instruction
system.cpu.op_class_0::FloatDiv                  1593      0.04%     62.93% # Class of committed instruction
system.cpu.op_class_0::FloatMisc                    0      0.00%     62.93% # Class of committed instruction
system.cpu.op_class_0::FloatSqrt                    0      0.00%     62.93% # Class of committed instruction
system.cpu.op_class_0::SimdAdd                      0      0.00%     62.93% # Class of committed instruction
system.cpu.op_class_0::SimdAddAcc                   0      0.00%     62.93% # Class of committed instruction
system.cpu.op_class_0::SimdAlu                      0      0.00%     62.93% # Class of committed instruction
system.cpu.op_class_0::SimdCmp                      0      0.00%     62.93% # Class of committed instruction
system.cpu.op_class_0::SimdCvt                      0      0.00%     62.93% # Class of committed instruction
system.cpu.op_class_0::SimdMisc                     0      0.00%     62.93% # Class of committed instruction
system.cpu.op_class_0::SimdMult                     0      0.00%     62.93% # Class of committed instruction
system.cpu.op_class_0::SimdMultAcc                  0      0.00%     62.93% # Class of committed instruction
system.cpu.op_class_0::SimdShift                    0      0.00%     62.93% # Class of committed instruction
system.cpu.op_class_0::SimdShiftAcc                 0      0.00%     62.93% # Class of committed instruction
system.cpu.op_class_0::SimdDiv                      0      0.00%     62.93% # Class of committed instruction
system.cpu.op_class_0::SimdSqrt                     0      0.00%     62.93% # Class of committed instruction
system.cpu.op_class_0::SimdFloatAdd                 0      0.00%     62.93% # Class of committed instruction
system.cpu.op_class_0::SimdFloatAlu                 0      0.00%     62.93% # Class of committed instruction
system.cpu.op_class_0::SimdFloatCmp                 0      0.00%     62.93% # Class of committed instruction
system.cpu.op_class_0::SimdFloatCvt                 0      0.00%     62.93% # Class of committed instruction
system.cpu.op_class_0::SimdFloatDiv                 0      0.00%     62.93% # Class of committed instruction
system.cpu.op_class_0::SimdFloatMisc                0      0.00%     62.93% # Class of committed instruction
system.cpu.op_class_0::SimdFloatMult                0      0.00%     62.93% # Class of committed instruction
system.cpu.op_class_0::SimdFloatMultAcc             0      0.00%     62.93% # Class of committed instruction
system.cpu.op_class_0::SimdFloatSqrt                0      0.00%     62.93% # Class of committed instruction
system.cpu.op_class_0::SimdReduceAdd                0      0.00%     62.93% # Class of committed instruction
system.cpu.op_class_0::SimdReduceAlu                0      0.00%     62.93% # Class of committed instruction
system.cpu.op_class_0::SimdReduceCmp                0      0.00%     62.93% # Class of committed instruction
system.cpu.op_class_0::SimdFloatReduceAdd            0      0.00%     62.93% # Class of committed instruction
system.cpu.op_class_0::SimdFloatReduceCmp            0      0.00%     62.93% # Class of committed instruction
system.cpu.op_class_0::SimdAes                      0      0.00%     62.93% # Class of committed instruction
system.cpu.op_class_0::SimdAesMix                   0      0.00%     62.93% # Class of committed instruction
system.cpu.op_class_0::SimdSha1Hash                 0      0.00%     62.93% # Class of committed instruction
system.cpu.op_class_0::SimdSha1Hash2                0      0.00%     62.93% # Class of committed instruction
system.cpu.op_class_0::SimdSha256Hash               0      0.00%     62.93% # Class of committed instruction
system.cpu.op_class_0::SimdSha256Hash2              0      0.00%     62.93% # Class of committed instruction
system.cpu.op_class_0::SimdShaSigma2                0      0.00%     62.93% # Class of committed instruction
system.cpu.op_class_0::SimdShaSigma3                0      0.00%     62.93% # Class of committed instruction
system.cpu.op_class_0::SimdPredAlu                  0      0.00%     62.93% # Class of committed instruction
system.cpu.op_class_0::MemRead                 839091     20.00%     82.93% # Class of committed instruction
system.cpu.op_class_0::MemWrite                592470     14.12%     97.06% # Class of committed instruction
system.cpu.op_class_0::FloatMemRead              9988      0.24%     97.29% # Class of committed instruction
system.cpu.op_class_0::FloatMemWrite             8788      0.21%     97.50% # Class of committed instruction
system.cpu.op_class_0::IprAccess               104755      2.50%    100.00% # Class of committed instruction
system.cpu.op_class_0::InstPrefetch                 0      0.00%    100.00% # Class of committed instruction
system.cpu.op_class_0::total                  4194840                       # Class of committed instruction
system.cpu.quiesceCycles                        13772                       # Total number of cycles that CPU has spent quiesced or waiting for an interrupt
system.cpu.tickCycles                         6855777                       # Number of cycles that the object actually ticked
system.disk0.dma_read_bytes                         0                       # Number of bytes transfered via DMA reads (not PRD).
system.disk0.dma_read_full_pages                    0                       # Number of full page size DMA reads (not PRD).
system.disk0.dma_read_txs                           0                       # Number of DMA read transactions (not PRD).
system.disk0.dma_write_bytes                    12288                       # Number of bytes transfered via DMA writes.
system.disk0.dma_write_full_pages                   0                       # Number of full page size DMA writes.
system.disk0.dma_write_txs                          3                       # Number of DMA write transactions.
system.disk2.dma_read_bytes                         0                       # Number of bytes transfered via DMA reads (not PRD).
system.disk2.dma_read_full_pages                    0                       # Number of full page size DMA reads (not PRD).
system.disk2.dma_read_txs                           0                       # Number of DMA read transactions (not PRD).
system.disk2.dma_write_bytes                        0                       # Number of bytes transfered via DMA writes.
system.disk2.dma_write_full_pages                   0                       # Number of full page size DMA writes.
system.disk2.dma_write_txs                          0                       # Number of DMA write transactions.
system.membus.snoop_filter.hit_multi_requests          433                       # Number of requests hitting in the snoop filter with multiple (>1) holders of the requested data.
system.membus.snoop_filter.hit_multi_snoops            0                       # Number of snoops hitting in the snoop filter with multiple (>1) holders of the requested data.
system.membus.snoop_filter.hit_single_requests       155144                       # Number of requests hitting in the snoop filter with a single holder of the requested data.
system.membus.snoop_filter.hit_single_snoops            0                       # Number of snoops hitting in the snoop filter with a single holder of the requested data.
system.membus.snoop_filter.tot_requests        311893                       # Total number of requests made to the snoop filter.
system.membus.snoop_filter.tot_snoops               0                       # Total number of snoops made to the snoop filter.
system.tsunami.ethernet.coalescedRxDesc           nan                       # average number of RxDesc's coalesced into each post
system.tsunami.ethernet.coalescedRxIdle           nan                       # average number of RxIdle's coalesced into each post
system.tsunami.ethernet.coalescedRxOk             nan                       # average number of RxOk's coalesced into each post
system.tsunami.ethernet.coalescedRxOrn            nan                       # average number of RxOrn's coalesced into each post
system.tsunami.ethernet.coalescedSwi              nan                       # average number of Swi's coalesced into each post
system.tsunami.ethernet.coalescedTotal            nan                       # average number of interrupts coalesced into each post
system.tsunami.ethernet.coalescedTxDesc           nan                       # average number of TxDesc's coalesced into each post
system.tsunami.ethernet.coalescedTxIdle           nan                       # average number of TxIdle's coalesced into each post
system.tsunami.ethernet.coalescedTxOk             nan                       # average number of TxOk's coalesced into each post
system.tsunami.ethernet.descDMAReads                0                       # Number of descriptors the device read w/ DMA
system.tsunami.ethernet.descDMAWrites               0                       # Number of descriptors the device wrote w/ DMA
system.tsunami.ethernet.descDmaReadBytes            0                       # number of descriptor bytes read w/ DMA
system.tsunami.ethernet.descDmaWriteBytes            0                       # number of descriptor bytes write w/ DMA
system.tsunami.ethernet.droppedPackets              0                       # number of packets dropped
system.tsunami.ethernet.postedInterrupts            0                       # number of posts to CPU
system.tsunami.ethernet.postedRxDesc                0                       # number of RxDesc interrupts posted to CPU
system.tsunami.ethernet.postedRxIdle                0                       # number of rxIdle interrupts posted to CPU
system.tsunami.ethernet.postedRxOk                  0                       # number of RxOk interrupts posted to CPU
system.tsunami.ethernet.postedRxOrn                 0                       # number of RxOrn posted to CPU
system.tsunami.ethernet.postedSwi                   0                       # number of software interrupts posted to CPU
system.tsunami.ethernet.postedTxDesc                0                       # number of TxDesc interrupts posted to CPU
system.tsunami.ethernet.postedTxIdle                0                       # number of TxIdle interrupts posted to CPU
system.tsunami.ethernet.postedTxOk                  0                       # number of TxOk interrupts posted to CPU
system.tsunami.ethernet.totalRxDesc                 0                       # total number of RxDesc written to ISR
system.tsunami.ethernet.totalRxIdle                 0                       # total number of RxIdle written to ISR
system.tsunami.ethernet.totalRxOk                   0                       # total number of RxOk written to ISR
system.tsunami.ethernet.totalRxOrn                  0                       # total number of RxOrn written to ISR
system.tsunami.ethernet.totalSwi                    0                       # total number of Swi written to ISR
system.tsunami.ethernet.totalTxDesc                 0                       # total number of TxDesc written to ISR
system.tsunami.ethernet.totalTxIdle                 0                       # total number of TxIdle written to ISR
system.tsunami.ethernet.totalTxOk                   0                       # total number of TxOk written to ISR
system.bridge.pwrStateResidencyTicks::UNDEFINED 2541780836500                       # Cumulative time (in ticks) in various power states
system.voltage_domain.voltage                       1                       # Voltage in Volts
system.iocache.pwrStateResidencyTicks::UNDEFINED 2541780836500                       # Cumulative time (in ticks) in various power states
system.iocache.demand_misses::.tsunami.ide          195                       # number of demand (read+write) misses
system.iocache.demand_misses::total               195                       # number of demand (read+write) misses
system.iocache.overall_misses::.tsunami.ide          195                       # number of overall misses
system.iocache.overall_misses::total              195                       # number of overall misses
system.iocache.demand_miss_latency::.tsunami.ide     22741454                       # number of demand (read+write) miss cycles
system.iocache.demand_miss_latency::total     22741454                       # number of demand (read+write) miss cycles
system.iocache.overall_miss_latency::.tsunami.ide     22741454                       # number of overall miss cycles
system.iocache.overall_miss_latency::total     22741454                       # number of overall miss cycles
system.iocache.demand_accesses::.tsunami.ide          195                       # number of demand (read+write) accesses
system.iocache.demand_accesses::total             195                       # number of demand (read+write) accesses
system.iocache.overall_accesses::.tsunami.ide          195                       # number of overall (read+write) accesses
system.iocache.overall_accesses::total            195                       # number of overall (read+write) accesses
system.iocache.demand_miss_rate::.tsunami.ide            1                       # miss rate for demand accesses
system.iocache.demand_miss_rate::total              1                       # miss rate for demand accesses
system.iocache.overall_miss_rate::.tsunami.ide            1                       # miss rate for overall accesses
system.iocache.overall_miss_rate::total             1                       # miss rate for overall accesses
system.iocache.demand_avg_miss_latency::.tsunami.ide 116622.841026                       # average overall miss latency
system.iocache.demand_avg_miss_latency::total 116622.841026                       # average overall miss latency
system.iocache.overall_avg_miss_latency::.tsunami.ide 116622.841026                       # average overall miss latency
system.iocache.overall_avg_miss_latency::total 116622.841026                       # average overall miss latency
system.iocache.blocked_cycles::no_mshrs             0                       # number of cycles access was blocked
system.iocache.blocked_cycles::no_targets            0                       # number of cycles access was blocked
system.iocache.blocked::no_mshrs                    0                       # number of cycles access was blocked
system.iocache.blocked::no_targets                  0                       # number of cycles access was blocked
system.iocache.avg_blocked_cycles::no_mshrs          nan                       # average number of cycles each access was blocked
system.iocache.avg_blocked_cycles::no_targets          nan                       # average number of cycles each access was blocked
system.iocache.writebacks::.writebacks            176                       # number of writebacks
system.iocache.writebacks::total                  176                       # number of writebacks
system.iocache.demand_mshr_misses::.tsunami.ide          195                       # number of demand (read+write) MSHR misses
system.iocache.demand_mshr_misses::total          195                       # number of demand (read+write) MSHR misses
system.iocache.overall_mshr_misses::.tsunami.ide          195                       # number of overall MSHR misses
system.iocache.overall_mshr_misses::total          195                       # number of overall MSHR misses
system.iocache.demand_mshr_miss_latency::.tsunami.ide     12978488                       # number of demand (read+write) MSHR miss cycles
system.iocache.demand_mshr_miss_latency::total     12978488                       # number of demand (read+write) MSHR miss cycles
system.iocache.overall_mshr_miss_latency::.tsunami.ide     12978488                       # number of overall MSHR miss cycles
system.iocache.overall_mshr_miss_latency::total     12978488                       # number of overall MSHR miss cycles
system.iocache.demand_mshr_miss_rate::.tsunami.ide            1                       # mshr miss rate for demand accesses
system.iocache.demand_mshr_miss_rate::total            1                       # mshr miss rate for demand accesses
system.iocache.overall_mshr_miss_rate::.tsunami.ide            1                       # mshr miss rate for overall accesses
system.iocache.overall_mshr_miss_rate::total            1                       # mshr miss rate for overall accesses
system.iocache.demand_avg_mshr_miss_latency::.tsunami.ide 66556.348718                       # average overall mshr miss latency
system.iocache.demand_avg_mshr_miss_latency::total 66556.348718                       # average overall mshr miss latency
system.iocache.overall_avg_mshr_miss_latency::.tsunami.ide 66556.348718                       # average overall mshr miss latency
system.iocache.overall_avg_mshr_miss_latency::total 66556.348718                       # average overall mshr miss latency
system.iocache.replacements                       179                       # number of replacements
system.iocache.ReadReq_misses::.tsunami.ide            3                       # number of ReadReq misses
system.iocache.ReadReq_misses::total                3                       # number of ReadReq misses
system.iocache.ReadReq_miss_latency::.tsunami.ide       349497                       # number of ReadReq miss cycles
system.iocache.ReadReq_miss_latency::total       349497                       # number of ReadReq miss cycles
system.iocache.ReadReq_accesses::.tsunami.ide            3                       # number of ReadReq accesses(hits+misses)
system.iocache.ReadReq_accesses::total              3                       # number of ReadReq accesses(hits+misses)
system.iocache.ReadReq_miss_rate::.tsunami.ide            1                       # miss rate for ReadReq accesses
system.iocache.ReadReq_miss_rate::total             1                       # miss rate for ReadReq accesses
system.iocache.ReadReq_avg_miss_latency::.tsunami.ide       116499                       # average ReadReq miss latency
system.iocache.ReadReq_avg_miss_latency::total       116499                       # average ReadReq miss latency
system.iocache.ReadReq_mshr_misses::.tsunami.ide            3                       # number of ReadReq MSHR misses
system.iocache.ReadReq_mshr_misses::total            3                       # number of ReadReq MSHR misses
system.iocache.ReadReq_mshr_miss_latency::.tsunami.ide       199497                       # number of ReadReq MSHR miss cycles
system.iocache.ReadReq_mshr_miss_latency::total       199497                       # number of ReadReq MSHR miss cycles
system.iocache.ReadReq_mshr_miss_rate::.tsunami.ide            1                       # mshr miss rate for ReadReq accesses
system.iocache.ReadReq_mshr_miss_rate::total            1                       # mshr miss rate for ReadReq accesses
system.iocache.ReadReq_avg_mshr_miss_latency::.tsunami.ide        66499                       # average ReadReq mshr miss latency
system.iocache.ReadReq_avg_mshr_miss_latency::total        66499                       # average ReadReq mshr miss latency
system.iocache.WriteLineReq_misses::.tsunami.ide          192                       # number of WriteLineReq misses
system.iocache.WriteLineReq_misses::total          192                       # number of WriteLineReq misses
system.iocache.WriteLineReq_miss_latency::.tsunami.ide     22391957                       # number of WriteLineReq miss cycles
system.iocache.WriteLineReq_miss_latency::total     22391957                       # number of WriteLineReq miss cycles
system.iocache.WriteLineReq_accesses::.tsunami.ide          192                       # number of WriteLineReq accesses(hits+misses)
system.iocache.WriteLineReq_accesses::total          192                       # number of WriteLineReq accesses(hits+misses)
system.iocache.WriteLineReq_miss_rate::.tsunami.ide            1                       # miss rate for WriteLineReq accesses
system.iocache.WriteLineReq_miss_rate::total            1                       # miss rate for WriteLineReq accesses
system.iocache.WriteLineReq_avg_miss_latency::.tsunami.ide 116624.776042                       # average WriteLineReq miss latency
system.iocache.WriteLineReq_avg_miss_latency::total 116624.776042                       # average WriteLineReq miss latency
system.iocache.WriteLineReq_mshr_misses::.tsunami.ide          192                       # number of WriteLineReq MSHR misses
system.iocache.WriteLineReq_mshr_misses::total          192                       # number of WriteLineReq MSHR misses
system.iocache.WriteLineReq_mshr_miss_latency::.tsunami.ide     12778991                       # number of WriteLineReq MSHR miss cycles
system.iocache.WriteLineReq_mshr_miss_latency::total     12778991                       # number of WriteLineReq MSHR miss cycles
system.iocache.WriteLineReq_mshr_miss_rate::.tsunami.ide            1                       # mshr miss rate for WriteLineReq accesses
system.iocache.WriteLineReq_mshr_miss_rate::total            1                       # mshr miss rate for WriteLineReq accesses
system.iocache.WriteLineReq_avg_mshr_miss_latency::.tsunami.ide 66557.244792                       # average WriteLineReq mshr miss latency
system.iocache.WriteLineReq_avg_mshr_miss_latency::total 66557.244792                       # average WriteLineReq mshr miss latency
system.iocache.tags.pwrStateResidencyTicks::UNDEFINED 2541780836500                       # Cumulative time (in ticks) in various power states
system.iocache.tags.tagsinuse                3.287385                       # Cycle average of tags in use
system.iocache.tags.total_refs                    179                       # Total number of references to valid blocks.
system.iocache.tags.sampled_refs                  179                       # Sample count of references to valid blocks.
system.iocache.tags.avg_refs                        1                       # Average number of references to valid blocks.
system.iocache.tags.warmup_cycle         2539361272000                       # Cycle when the warmup percentage was hit.
system.iocache.tags.occ_blocks::.tsunami.ide     3.287385                       # Average occupied blocks per requestor
system.iocache.tags.occ_percent::.tsunami.ide     0.205462                       # Average percentage of cache occupancy
system.iocache.tags.occ_percent::total       0.205462                       # Average percentage of cache occupancy
system.iocache.tags.occ_task_id_blocks::1023           16                       # Occupied blocks per task id
system.iocache.tags.age_task_id_blocks_1023::3           16                       # Occupied blocks per task id
system.iocache.tags.occ_task_id_percent::1023            1                       # Percentage of cache occupancy per task id
system.iocache.tags.tag_accesses                 1755                       # Number of tag accesses
system.iocache.tags.data_accesses                1755                       # Number of data accesses
system.membus.pwrStateResidencyTicks::UNDEFINED 2541780836500                       # Cumulative time (in ticks) in various power states
system.membus.trans_dist::ReadReq                 108                       # Transaction distribution
system.membus.trans_dist::ReadResp             127681                       # Transaction distribution
system.membus.trans_dist::WriteReq                 99                       # Transaction distribution
system.membus.trans_dist::WriteResp                99                       # Transaction distribution
system.membus.trans_dist::WritebackDirty        34838                       # Transaction distribution
system.membus.trans_dist::WritebackClean        86123                       # Transaction distribution
system.membus.trans_dist::CleanEvict            34162                       # Transaction distribution
system.membus.trans_dist::UpgradeReq               15                       # Transaction distribution
system.membus.trans_dist::ReadExReq             28988                       # Transaction distribution
system.membus.trans_dist::ReadExResp            28988                       # Transaction distribution
system.membus.trans_dist::ReadCleanReq          86713                       # Transaction distribution
system.membus.trans_dist::ReadSharedReq         40862                       # Transaction distribution
system.membus.trans_dist::BadAddressError            2                       # Transaction distribution
system.membus.trans_dist::InvalidateReq           192                       # Transaction distribution
system.membus.pkt_count_system.iocache.mem_side::system.mem_ctrls.port          374                       # Packet count per connected master and slave (bytes)
system.membus.pkt_count_system.iocache.mem_side::total          374                       # Packet count per connected master and slave (bytes)
system.membus.pkt_count_system.cpu.icache.mem_side::system.mem_ctrls.port       259486                       # Packet count per connected master and slave (bytes)
system.membus.pkt_count_system.cpu.icache.mem_side::total       259486                       # Packet count per connected master and slave (bytes)
system.membus.pkt_count_system.cpu.dcache.mem_side::system.bridge.slave          414                       # Packet count per connected master and slave (bytes)
system.membus.pkt_count_system.cpu.dcache.mem_side::system.mem_ctrls.port       208526                       # Packet count per connected master and slave (bytes)
system.membus.pkt_count_system.cpu.dcache.mem_side::system.membus.badaddr_responder.pio            4                       # Packet count per connected master and slave (bytes)
system.membus.pkt_count_system.cpu.dcache.mem_side::total       208944                       # Packet count per connected master and slave (bytes)
system.membus.pkt_count::total                 468804                       # Packet count per connected master and slave (bytes)
system.membus.pkt_size_system.iocache.mem_side::system.mem_ctrls.port        11264                       # Cumulative packet size per connected master and slave (bytes)
system.membus.pkt_size_system.iocache.mem_side::total        11264                       # Cumulative packet size per connected master and slave (bytes)
system.membus.pkt_size_system.cpu.icache.mem_side::system.mem_ctrls.port     11057472                       # Cumulative packet size per connected master and slave (bytes)
system.membus.pkt_size_system.cpu.icache.mem_side::total     11057472                       # Cumulative packet size per connected master and slave (bytes)
system.membus.pkt_size_system.cpu.dcache.mem_side::system.bridge.slave          433                       # Cumulative packet size per connected master and slave (bytes)
system.membus.pkt_size_system.cpu.dcache.mem_side::system.mem_ctrls.port      6688448                       # Cumulative packet size per connected master and slave (bytes)
system.membus.pkt_size_system.cpu.dcache.mem_side::total      6688881                       # Cumulative packet size per connected master and slave (bytes)
system.membus.pkt_size::total                17757617                       # Cumulative packet size per connected master and slave (bytes)
system.membus.snoops                               66                       # Total snoops (count)
system.membus.snoopTraffic                       4224                       # Total snoop traffic (bytes)
system.membus.snoop_fanout::samples            156977                       # Request fanout histogram
system.membus.snoop_fanout::mean             0.002765                       # Request fanout histogram
system.membus.snoop_fanout::stdev            0.052508                       # Request fanout histogram
system.membus.snoop_fanout::underflows              0      0.00%      0.00% # Request fanout histogram
system.membus.snoop_fanout::0                  156543     99.72%     99.72% # Request fanout histogram
system.membus.snoop_fanout::1                     434      0.28%    100.00% # Request fanout histogram
system.membus.snoop_fanout::2                       0      0.00%    100.00% # Request fanout histogram
system.membus.snoop_fanout::3                       0      0.00%    100.00% # Request fanout histogram
system.membus.snoop_fanout::overflows               0      0.00%    100.00% # Request fanout histogram
system.membus.snoop_fanout::min_value               0                       # Request fanout histogram
system.membus.snoop_fanout::max_value               1                       # Request fanout histogram
system.membus.snoop_fanout::total              156977                       # Request fanout histogram
system.membus.reqLayer0.occupancy              348000                       # Layer occupancy (ticks)
system.membus.reqLayer0.utilization               0.0                       # Layer utilization (%)
system.membus.reqLayer1.occupancy           818218537                       # Layer occupancy (ticks)
system.membus.reqLayer1.utilization               7.0                       # Layer utilization (%)
system.membus.reqLayer2.occupancy                2500                       # Layer occupancy (ticks)
system.membus.reqLayer2.utilization               0.0                       # Layer utilization (%)
system.membus.respLayer1.occupancy              17997                       # Layer occupancy (ticks)
system.membus.respLayer1.utilization              0.0                       # Layer utilization (%)
system.membus.respLayer3.occupancy          375751500                       # Layer occupancy (ticks)
system.membus.respLayer3.utilization              3.2                       # Layer utilization (%)
system.membus.badaddr_responder.pwrStateResidencyTicks::UNDEFINED 2541780836500                       # Cumulative time (in ticks) in various power states
system.membus.respLayer2.occupancy          459652750                       # Layer occupancy (ticks)
system.membus.respLayer2.utilization              3.9                       # Layer utilization (%)
system.clk_domain.clock                          1000                       # Clock period in ticks
system.tsunami.fake_uart1.pwrStateResidencyTicks::UNDEFINED 2541780836500                       # Cumulative time (in ticks) in various power states
system.tsunami.fake_uart2.pwrStateResidencyTicks::UNDEFINED 2541780836500                       # Cumulative time (in ticks) in various power states
system.tsunami.fake_uart3.pwrStateResidencyTicks::UNDEFINED 2541780836500                       # Cumulative time (in ticks) in various power states
system.tsunami.fake_uart4.pwrStateResidencyTicks::UNDEFINED 2541780836500                       # Cumulative time (in ticks) in various power states
system.tsunami.fake_ppc.pwrStateResidencyTicks::UNDEFINED 2541780836500                       # Cumulative time (in ticks) in various power states
system.tsunami.cchip.pwrStateResidencyTicks::UNDEFINED 2541780836500                       # Cumulative time (in ticks) in various power states
system.tsunami.io.pwrStateResidencyTicks::UNDEFINED 2541780836500                       # Cumulative time (in ticks) in various power states
system.tsunami.pchip.pwrStateResidencyTicks::UNDEFINED 2541780836500                       # Cumulative time (in ticks) in various power states
system.tsunami.fake_ata1.pwrStateResidencyTicks::UNDEFINED 2541780836500                       # Cumulative time (in ticks) in various power states
system.tsunami.fake_ata0.pwrStateResidencyTicks::UNDEFINED 2541780836500                       # Cumulative time (in ticks) in various power states
system.tsunami.backdoor.pwrStateResidencyTicks::UNDEFINED 2541780836500                       # Cumulative time (in ticks) in various power states
system.tsunami.fake_pnp_read3.pwrStateResidencyTicks::UNDEFINED 2541780836500                       # Cumulative time (in ticks) in various power states
system.tsunami.fake_pnp_read2.pwrStateResidencyTicks::UNDEFINED 2541780836500                       # Cumulative time (in ticks) in various power states
system.tsunami.fake_pnp_read1.pwrStateResidencyTicks::UNDEFINED 2541780836500                       # Cumulative time (in ticks) in various power states
system.tsunami.fake_pnp_read0.pwrStateResidencyTicks::UNDEFINED 2541780836500                       # Cumulative time (in ticks) in various power states
system.tsunami.fake_pnp_read7.pwrStateResidencyTicks::UNDEFINED 2541780836500                       # Cumulative time (in ticks) in various power states
system.tsunami.fake_pnp_read6.pwrStateResidencyTicks::UNDEFINED 2541780836500                       # Cumulative time (in ticks) in various power states
system.tsunami.fake_pnp_read5.pwrStateResidencyTicks::UNDEFINED 2541780836500                       # Cumulative time (in ticks) in various power states
system.tsunami.fake_pnp_read4.pwrStateResidencyTicks::UNDEFINED 2541780836500                       # Cumulative time (in ticks) in various power states
system.tsunami.fake_pnp_write.pwrStateResidencyTicks::UNDEFINED 2541780836500                       # Cumulative time (in ticks) in various power states
system.tsunami.fb.pwrStateResidencyTicks::UNDEFINED 2541780836500                       # Cumulative time (in ticks) in various power states
system.tsunami.fake_pnp_addr.pwrStateResidencyTicks::UNDEFINED 2541780836500                       # Cumulative time (in ticks) in various power states
system.tsunami.fake_OROM.pwrStateResidencyTicks::UNDEFINED 2541780836500                       # Cumulative time (in ticks) in various power states
system.tsunami.uart.pwrStateResidencyTicks::UNDEFINED 2541780836500                       # Cumulative time (in ticks) in various power states
system.tsunami.fake_sm_chip.pwrStateResidencyTicks::UNDEFINED 2541780836500                       # Cumulative time (in ticks) in various power states
system.tsunami.ethernet.pwrStateResidencyTicks::UNDEFINED 2541780836500                       # Cumulative time (in ticks) in various power states
system.tsunami.ide.pwrStateResidencyTicks::UNDEFINED 2541780836500                       # Cumulative time (in ticks) in various power states
system.cpu_voltage_domain.voltage                   1                       # Voltage in Volts
system.mem_ctrls.pwrStateResidencyTicks::UNDEFINED 2541780836500                       # Cumulative time (in ticks) in various power states
system.mem_ctrls.bytes_read::.cpu.inst        5545600                       # Number of bytes read from this memory
system.mem_ctrls.bytes_read::.cpu.data        4470080                       # Number of bytes read from this memory
system.mem_ctrls.bytes_read::total           10015680                       # Number of bytes read from this memory
system.mem_ctrls.bytes_inst_read::.cpu.inst      5545600                       # Number of instructions bytes read from this memory
system.mem_ctrls.bytes_inst_read::total       5545600                       # Number of instructions bytes read from this memory
system.mem_ctrls.bytes_written::.writebacks      2229632                       # Number of bytes written to this memory
system.mem_ctrls.bytes_written::total         2229632                       # Number of bytes written to this memory
system.mem_ctrls.num_reads::.cpu.inst           86650                       # Number of read requests responded to by this memory
system.mem_ctrls.num_reads::.cpu.data           69845                       # Number of read requests responded to by this memory
system.mem_ctrls.num_reads::total              156495                       # Number of read requests responded to by this memory
system.mem_ctrls.num_writes::.writebacks        34838                       # Number of write requests responded to by this memory
system.mem_ctrls.num_writes::total              34838                       # Number of write requests responded to by this memory
system.mem_ctrls.bw_read::.cpu.inst         471124289                       # Total read bandwidth from this memory (bytes/s)
system.mem_ctrls.bw_read::.cpu.data         379753906                       # Total read bandwidth from this memory (bytes/s)
system.mem_ctrls.bw_read::total             850878195                       # Total read bandwidth from this memory (bytes/s)
system.mem_ctrls.bw_inst_read::.cpu.inst    471124289                       # Instruction read bandwidth from this memory (bytes/s)
system.mem_ctrls.bw_inst_read::total        471124289                       # Instruction read bandwidth from this memory (bytes/s)
system.mem_ctrls.bw_write::.writebacks      189417518                       # Write bandwidth from this memory (bytes/s)
system.mem_ctrls.bw_write::total            189417518                       # Write bandwidth from this memory (bytes/s)
system.mem_ctrls.bw_total::.writebacks      189417518                       # Total bandwidth to/from this memory (bytes/s)
system.mem_ctrls.bw_total::.cpu.inst        471124289                       # Total bandwidth to/from this memory (bytes/s)
system.mem_ctrls.bw_total::.cpu.data        379753906                       # Total bandwidth to/from this memory (bytes/s)
system.mem_ctrls.bw_total::total           1040295713                       # Total bandwidth to/from this memory (bytes/s)
system.mem_ctrls.avgPriority_.writebacks::samples    118470.00                       # Average QoS priority value for accepted requests
system.mem_ctrls.avgPriority_.cpu.inst::samples     76683.00                       # Average QoS priority value for accepted requests
system.mem_ctrls.avgPriority_.cpu.data::samples     69324.00                       # Average QoS priority value for accepted requests
system.mem_ctrls.priorityMinLatency      0.000000018750                       # per QoS priority minimum request to response latency (s)
system.mem_ctrls.priorityMaxLatency      0.000124546500                       # per QoS priority maximum request to response latency (s)
system.mem_ctrls.numReadWriteTurnArounds         7296                       # Number of turnarounds from READ to WRITE
system.mem_ctrls.numWriteReadTurnArounds         7296                       # Number of turnarounds from WRITE to READ
system.mem_ctrls.numStayReadState              405084                       # Number of times bus staying in READ state
system.mem_ctrls.numStayWriteState             111254                       # Number of times bus staying in WRITE state
system.mem_ctrls.readReqs                      156495                       # Number of read requests accepted
system.mem_ctrls.writeReqs                     120750                       # Number of write requests accepted
system.mem_ctrls.readBursts                    156495                       # Number of DRAM read bursts, including those serviced by the write queue
system.mem_ctrls.writeBursts                   120750                       # Number of DRAM write bursts, including those merged in the write queue
system.mem_ctrls.servicedByWrQ                  10488                       # Number of DRAM read bursts serviced by the write queue
system.mem_ctrls.mergedWrBursts                  2280                       # Number of DRAM write bursts merged with an existing one
system.mem_ctrls.neitherReadNorWriteReqs            0                       # Number of requests that are neither read nor write
system.mem_ctrls.perBankRdBursts::0              8750                       # Per bank write bursts
system.mem_ctrls.perBankRdBursts::1              6742                       # Per bank write bursts
system.mem_ctrls.perBankRdBursts::2              9750                       # Per bank write bursts
system.mem_ctrls.perBankRdBursts::3              7163                       # Per bank write bursts
system.mem_ctrls.perBankRdBursts::4              8326                       # Per bank write bursts
system.mem_ctrls.perBankRdBursts::5             10050                       # Per bank write bursts
system.mem_ctrls.perBankRdBursts::6              8421                       # Per bank write bursts
system.mem_ctrls.perBankRdBursts::7              8669                       # Per bank write bursts
system.mem_ctrls.perBankRdBursts::8             11741                       # Per bank write bursts
system.mem_ctrls.perBankRdBursts::9              9269                       # Per bank write bursts
system.mem_ctrls.perBankRdBursts::10            10542                       # Per bank write bursts
system.mem_ctrls.perBankRdBursts::11            11990                       # Per bank write bursts
system.mem_ctrls.perBankRdBursts::12             8870                       # Per bank write bursts
system.mem_ctrls.perBankRdBursts::13            13478                       # Per bank write bursts
system.mem_ctrls.perBankRdBursts::14             5493                       # Per bank write bursts
system.mem_ctrls.perBankRdBursts::15             6753                       # Per bank write bursts
system.mem_ctrls.perBankWrBursts::0              7038                       # Per bank write bursts
system.mem_ctrls.perBankWrBursts::1              4569                       # Per bank write bursts
system.mem_ctrls.perBankWrBursts::2              8321                       # Per bank write bursts
system.mem_ctrls.perBankWrBursts::3              7935                       # Per bank write bursts
system.mem_ctrls.perBankWrBursts::4              7690                       # Per bank write bursts
system.mem_ctrls.perBankWrBursts::5              9832                       # Per bank write bursts
system.mem_ctrls.perBankWrBursts::6              7200                       # Per bank write bursts
system.mem_ctrls.perBankWrBursts::7              6883                       # Per bank write bursts
system.mem_ctrls.perBankWrBursts::8             10512                       # Per bank write bursts
system.mem_ctrls.perBankWrBursts::9              8439                       # Per bank write bursts
system.mem_ctrls.perBankWrBursts::10             7837                       # Per bank write bursts
system.mem_ctrls.perBankWrBursts::11             8029                       # Per bank write bursts
system.mem_ctrls.perBankWrBursts::12             5448                       # Per bank write bursts
system.mem_ctrls.perBankWrBursts::13             9913                       # Per bank write bursts
system.mem_ctrls.perBankWrBursts::14             3152                       # Per bank write bursts
system.mem_ctrls.perBankWrBursts::15             5647                       # Per bank write bursts
system.mem_ctrls.avgRdQLen                       1.09                       # Average read queue length when enqueuing
system.mem_ctrls.avgWrQLen                      25.76                       # Average write queue length when enqueuing
system.mem_ctrls.totQLat                   1993472000                       # Total ticks spent queuing
system.mem_ctrls.totBusLat                  730035000                       # Total ticks spent in databus transfers
system.mem_ctrls.totMemAccLat              4731103250                       # Total ticks spent from burst creation until serviced by the DRAM
system.mem_ctrls.avgQLat                     13653.26                       # Average queueing delay per DRAM burst
system.mem_ctrls.avgBusLat                    5000.00                       # Average bus latency per DRAM burst
system.mem_ctrls.avgMemAccLat                32403.26                       # Average memory access latency per DRAM burst
system.mem_ctrls.numRdRetry                         0                       # Number of times read queue was full causing retry
system.mem_ctrls.numWrRetry                         0                       # Number of times write queue was full causing retry
system.mem_ctrls.readRowHits                   103546                       # Number of row buffer hits during reads
system.mem_ctrls.writeRowHits                   79881                       # Number of row buffer hits during writes
system.mem_ctrls.readRowHitRate                 70.92                       # Row buffer hit rate for reads
system.mem_ctrls.writeRowHitRate                67.43                       # Row buffer hit rate for writes
system.mem_ctrls.readPktSize::0                     0                       # Read request sizes (log2)
system.mem_ctrls.readPktSize::1                     0                       # Read request sizes (log2)
system.mem_ctrls.readPktSize::2                     0                       # Read request sizes (log2)
system.mem_ctrls.readPktSize::3                     0                       # Read request sizes (log2)
system.mem_ctrls.readPktSize::4                     0                       # Read request sizes (log2)
system.mem_ctrls.readPktSize::5                     0                       # Read request sizes (log2)
system.mem_ctrls.readPktSize::6                156495                       # Read request sizes (log2)
system.mem_ctrls.writePktSize::0                    0                       # Write request sizes (log2)
system.mem_ctrls.writePktSize::1                    0                       # Write request sizes (log2)
system.mem_ctrls.writePktSize::2                    0                       # Write request sizes (log2)
system.mem_ctrls.writePktSize::3                    0                       # Write request sizes (log2)
system.mem_ctrls.writePktSize::4                    0                       # Write request sizes (log2)
system.mem_ctrls.writePktSize::5                    0                       # Write request sizes (log2)
system.mem_ctrls.writePktSize::6               120750                       # Write request sizes (log2)
system.mem_ctrls.rdQLenPdf::0                  133653                       # What read queue length does an incoming req see
system.mem_ctrls.rdQLenPdf::1                   12050                       # What read queue length does an incoming req see
system.mem_ctrls.rdQLenPdf::2                     304                       # What read queue length does an incoming req see
system.mem_ctrls.rdQLenPdf::3                       0                       # What read queue length does an incoming req see
system.mem_ctrls.rdQLenPdf::4                       0                       # What read queue length does an incoming req see
system.mem_ctrls.rdQLenPdf::5                       0                       # What read queue length does an incoming req see
system.mem_ctrls.rdQLenPdf::6                       0                       # What read queue length does an incoming req see
system.mem_ctrls.rdQLenPdf::7                       0                       # What read queue length does an incoming req see
system.mem_ctrls.rdQLenPdf::8                       0                       # What read queue length does an incoming req see
system.mem_ctrls.rdQLenPdf::9                       0                       # What read queue length does an incoming req see
system.mem_ctrls.rdQLenPdf::10                      0                       # What read queue length does an incoming req see
system.mem_ctrls.rdQLenPdf::11                      0                       # What read queue length does an incoming req see
system.mem_ctrls.rdQLenPdf::12                      0                       # What read queue length does an incoming req see
system.mem_ctrls.rdQLenPdf::13                      0                       # What read queue length does an incoming req see
system.mem_ctrls.rdQLenPdf::14                      0                       # What read queue length does an incoming req see
system.mem_ctrls.rdQLenPdf::15                      0                       # What read queue length does an incoming req see
system.mem_ctrls.rdQLenPdf::16                      0                       # What read queue length does an incoming req see
system.mem_ctrls.rdQLenPdf::17                      0                       # What read queue length does an incoming req see
system.mem_ctrls.rdQLenPdf::18                      0                       # What read queue length does an incoming req see
system.mem_ctrls.rdQLenPdf::19                      0                       # What read queue length does an incoming req see
system.mem_ctrls.rdQLenPdf::20                      0                       # What read queue length does an incoming req see
system.mem_ctrls.rdQLenPdf::21                      0                       # What read queue length does an incoming req see
system.mem_ctrls.rdQLenPdf::22                      0                       # What read queue length does an incoming req see
system.mem_ctrls.rdQLenPdf::23                      0                       # What read queue length does an incoming req see
system.mem_ctrls.rdQLenPdf::24                      0                       # What read queue length does an incoming req see
system.mem_ctrls.rdQLenPdf::25                      0                       # What read queue length does an incoming req see
system.mem_ctrls.rdQLenPdf::26                      0                       # What read queue length does an incoming req see
system.mem_ctrls.rdQLenPdf::27                      0                       # What read queue length does an incoming req see
system.mem_ctrls.rdQLenPdf::28                      0                       # What read queue length does an incoming req see
system.mem_ctrls.rdQLenPdf::29                      0                       # What read queue length does an incoming req see
system.mem_ctrls.rdQLenPdf::30                      0                       # What read queue length does an incoming req see
system.mem_ctrls.rdQLenPdf::31                      0                       # What read queue length does an incoming req see
system.mem_ctrls.wrQLenPdf::0                       1                       # What write queue length does an incoming req see
system.mem_ctrls.wrQLenPdf::1                       1                       # What write queue length does an incoming req see
system.mem_ctrls.wrQLenPdf::2                       1                       # What write queue length does an incoming req see
system.mem_ctrls.wrQLenPdf::3                       1                       # What write queue length does an incoming req see
system.mem_ctrls.wrQLenPdf::4                       1                       # What write queue length does an incoming req see
system.mem_ctrls.wrQLenPdf::5                       1                       # What write queue length does an incoming req see
system.mem_ctrls.wrQLenPdf::6                       1                       # What write queue length does an incoming req see
system.mem_ctrls.wrQLenPdf::7                       1                       # What write queue length does an incoming req see
system.mem_ctrls.wrQLenPdf::8                       1                       # What write queue length does an incoming req see
system.mem_ctrls.wrQLenPdf::9                       1                       # What write queue length does an incoming req see
system.mem_ctrls.wrQLenPdf::10                      1                       # What write queue length does an incoming req see
system.mem_ctrls.wrQLenPdf::11                      1                       # What write queue length does an incoming req see
system.mem_ctrls.wrQLenPdf::12                      1                       # What write queue length does an incoming req see
system.mem_ctrls.wrQLenPdf::13                      1                       # What write queue length does an incoming req see
system.mem_ctrls.wrQLenPdf::14                      1                       # What write queue length does an incoming req see
system.mem_ctrls.wrQLenPdf::15                    613                       # What write queue length does an incoming req see
system.mem_ctrls.wrQLenPdf::16                    722                       # What write queue length does an incoming req see
system.mem_ctrls.wrQLenPdf::17                   6674                       # What write queue length does an incoming req see
system.mem_ctrls.wrQLenPdf::18                   7297                       # What write queue length does an incoming req see
system.mem_ctrls.wrQLenPdf::19                   7425                       # What write queue length does an incoming req see
system.mem_ctrls.wrQLenPdf::20                   7386                       # What write queue length does an incoming req see
system.mem_ctrls.wrQLenPdf::21                   7379                       # What write queue length does an incoming req see
system.mem_ctrls.wrQLenPdf::22                   7474                       # What write queue length does an incoming req see
system.mem_ctrls.wrQLenPdf::23                   7378                       # What write queue length does an incoming req see
system.mem_ctrls.wrQLenPdf::24                   7376                       # What write queue length does an incoming req see
system.mem_ctrls.wrQLenPdf::25                   7376                       # What write queue length does an incoming req see
system.mem_ctrls.wrQLenPdf::26                   7410                       # What write queue length does an incoming req see
system.mem_ctrls.wrQLenPdf::27                   7364                       # What write queue length does an incoming req see
system.mem_ctrls.wrQLenPdf::28                   7333                       # What write queue length does an incoming req see
system.mem_ctrls.wrQLenPdf::29                   7331                       # What write queue length does an incoming req see
system.mem_ctrls.wrQLenPdf::30                   7298                       # What write queue length does an incoming req see
system.mem_ctrls.wrQLenPdf::31                   7297                       # What write queue length does an incoming req see
system.mem_ctrls.wrQLenPdf::32                   7297                       # What write queue length does an incoming req see
system.mem_ctrls.wrQLenPdf::33                     14                       # What write queue length does an incoming req see
system.mem_ctrls.wrQLenPdf::34                      6                       # What write queue length does an incoming req see
system.mem_ctrls.wrQLenPdf::35                      2                       # What write queue length does an incoming req see
system.mem_ctrls.wrQLenPdf::36                      1                       # What write queue length does an incoming req see
system.mem_ctrls.wrQLenPdf::37                      1                       # What write queue length does an incoming req see
system.mem_ctrls.wrQLenPdf::38                      1                       # What write queue length does an incoming req see
system.mem_ctrls.wrQLenPdf::39                      0                       # What write queue length does an incoming req see
system.mem_ctrls.wrQLenPdf::40                      0                       # What write queue length does an incoming req see
system.mem_ctrls.wrQLenPdf::41                      0                       # What write queue length does an incoming req see
system.mem_ctrls.wrQLenPdf::42                      0                       # What write queue length does an incoming req see
system.mem_ctrls.wrQLenPdf::43                      0                       # What write queue length does an incoming req see
system.mem_ctrls.wrQLenPdf::44                      0                       # What write queue length does an incoming req see
system.mem_ctrls.wrQLenPdf::45                      0                       # What write queue length does an incoming req see
system.mem_ctrls.wrQLenPdf::46                      0                       # What write queue length does an incoming req see
system.mem_ctrls.wrQLenPdf::47                      0                       # What write queue length does an incoming req see
system.mem_ctrls.wrQLenPdf::48                      0                       # What write queue length does an incoming req see
system.mem_ctrls.wrQLenPdf::49                      0                       # What write queue length does an incoming req see
system.mem_ctrls.wrQLenPdf::50                      0                       # What write queue length does an incoming req see
system.mem_ctrls.wrQLenPdf::51                      0                       # What write queue length does an incoming req see
system.mem_ctrls.wrQLenPdf::52                      0                       # What write queue length does an incoming req see
system.mem_ctrls.wrQLenPdf::53                      0                       # What write queue length does an incoming req see
system.mem_ctrls.wrQLenPdf::54                      0                       # What write queue length does an incoming req see
system.mem_ctrls.wrQLenPdf::55                      0                       # What write queue length does an incoming req see
system.mem_ctrls.wrQLenPdf::56                      0                       # What write queue length does an incoming req see
system.mem_ctrls.wrQLenPdf::57                      0                       # What write queue length does an incoming req see
system.mem_ctrls.wrQLenPdf::58                      0                       # What write queue length does an incoming req see
system.mem_ctrls.wrQLenPdf::59                      0                       # What write queue length does an incoming req see
system.mem_ctrls.wrQLenPdf::60                      0                       # What write queue length does an incoming req see
system.mem_ctrls.wrQLenPdf::61                      0                       # What write queue length does an incoming req see
system.mem_ctrls.wrQLenPdf::62                      0                       # What write queue length does an incoming req see
system.mem_ctrls.wrQLenPdf::63                      0                       # What write queue length does an incoming req see
system.mem_ctrls.bytesPerActivate::samples        81012                       # Bytes accessed per row activation
system.mem_ctrls.bytesPerActivate::mean    208.881647                       # Bytes accessed per row activation
system.mem_ctrls.bytesPerActivate::gmean   140.332018                       # Bytes accessed per row activation
system.mem_ctrls.bytesPerActivate::stdev   225.905498                       # Bytes accessed per row activation
system.mem_ctrls.bytesPerActivate::0-127        34274     42.31%     42.31% # Bytes accessed per row activation
system.mem_ctrls.bytesPerActivate::128-255        24182     29.85%     72.16% # Bytes accessed per row activation
system.mem_ctrls.bytesPerActivate::256-383         9968     12.30%     84.46% # Bytes accessed per row activation
system.mem_ctrls.bytesPerActivate::384-511         4442      5.48%     89.94% # Bytes accessed per row activation
system.mem_ctrls.bytesPerActivate::512-639         2341      2.89%     92.83% # Bytes accessed per row activation
system.mem_ctrls.bytesPerActivate::640-767         1423      1.76%     94.59% # Bytes accessed per row activation
system.mem_ctrls.bytesPerActivate::768-895          969      1.20%     95.79% # Bytes accessed per row activation
system.mem_ctrls.bytesPerActivate::896-1023          626      0.77%     96.56% # Bytes accessed per row activation
system.mem_ctrls.bytesPerActivate::1024-1151         2787      3.44%    100.00% # Bytes accessed per row activation
system.mem_ctrls.bytesPerActivate::total        81012                       # Bytes accessed per row activation
system.mem_ctrls.rdPerTurnAround::samples         7296                       # Reads before turning the bus around for writes
system.mem_ctrls.rdPerTurnAround::mean      20.010828                       # Reads before turning the bus around for writes
system.mem_ctrls.rdPerTurnAround::gmean     18.400853                       # Reads before turning the bus around for writes
system.mem_ctrls.rdPerTurnAround::stdev     12.746466                       # Reads before turning the bus around for writes
system.mem_ctrls.rdPerTurnAround::0-15           1280     17.54%     17.54% # Reads before turning the bus around for writes
system.mem_ctrls.rdPerTurnAround::16-31          5534     75.85%     93.39% # Reads before turning the bus around for writes
system.mem_ctrls.rdPerTurnAround::32-47           297      4.07%     97.46% # Reads before turning the bus around for writes
system.mem_ctrls.rdPerTurnAround::48-63            87      1.19%     98.66% # Reads before turning the bus around for writes
system.mem_ctrls.rdPerTurnAround::64-79            41      0.56%     99.22% # Reads before turning the bus around for writes
system.mem_ctrls.rdPerTurnAround::80-95            19      0.26%     99.48% # Reads before turning the bus around for writes
system.mem_ctrls.rdPerTurnAround::96-111           11      0.15%     99.63% # Reads before turning the bus around for writes
system.mem_ctrls.rdPerTurnAround::112-127            9      0.12%     99.75% # Reads before turning the bus around for writes
system.mem_ctrls.rdPerTurnAround::128-143            7      0.10%     99.85% # Reads before turning the bus around for writes
system.mem_ctrls.rdPerTurnAround::144-159            6      0.08%     99.93% # Reads before turning the bus around for writes
system.mem_ctrls.rdPerTurnAround::160-175            1      0.01%     99.95% # Reads before turning the bus around for writes
system.mem_ctrls.rdPerTurnAround::176-191            1      0.01%     99.96% # Reads before turning the bus around for writes
system.mem_ctrls.rdPerTurnAround::192-207            1      0.01%     99.97% # Reads before turning the bus around for writes
system.mem_ctrls.rdPerTurnAround::256-271            1      0.01%     99.99% # Reads before turning the bus around for writes
system.mem_ctrls.rdPerTurnAround::400-415            1      0.01%    100.00% # Reads before turning the bus around for writes
system.mem_ctrls.rdPerTurnAround::total          7296                       # Reads before turning the bus around for writes
system.mem_ctrls.wrPerTurnAround::samples         7296                       # Writes before turning the bus around for reads
system.mem_ctrls.wrPerTurnAround::mean      16.234238                       # Writes before turning the bus around for reads
system.mem_ctrls.wrPerTurnAround::gmean     16.218736                       # Writes before turning the bus around for reads
system.mem_ctrls.wrPerTurnAround::stdev      0.743137                       # Writes before turning the bus around for reads
system.mem_ctrls.wrPerTurnAround::16             6551     89.79%     89.79% # Writes before turning the bus around for reads
system.mem_ctrls.wrPerTurnAround::17               96      1.32%     91.10% # Writes before turning the bus around for reads
system.mem_ctrls.wrPerTurnAround::18              414      5.67%     96.78% # Writes before turning the bus around for reads
system.mem_ctrls.wrPerTurnAround::19              156      2.14%     98.92% # Writes before turning the bus around for reads
system.mem_ctrls.wrPerTurnAround::20               78      1.07%     99.99% # Writes before turning the bus around for reads
system.mem_ctrls.wrPerTurnAround::21                1      0.01%    100.00% # Writes before turning the bus around for reads
system.mem_ctrls.wrPerTurnAround::total          7296                       # Writes before turning the bus around for reads
system.mem_ctrls.bytesReadDRAM                9344448                       # Total number of bytes read from DRAM
system.mem_ctrls.bytesReadWrQ                  671232                       # Total number of bytes read from write queue
system.mem_ctrls.bytesWritten                 7580480                       # Total number of bytes written to DRAM
system.mem_ctrls.bytesReadSys                10015680                       # Total read bytes from the system interface side
system.mem_ctrls.bytesWrittenSys              7728000                       # Total written bytes from the system interface side
system.mem_ctrls.avgRdBW                       793.85                       # Average DRAM read bandwidth in MiByte/s
system.mem_ctrls.avgWrBW                       644.00                       # Average achieved write bandwidth in MiByte/s
system.mem_ctrls.avgRdBWSys                    850.88                       # Average system read bandwidth in MiByte/s
system.mem_ctrls.avgWrBWSys                    656.53                       # Average system write bandwidth in MiByte/s
system.mem_ctrls.peakBW                      12800.00                       # Theoretical peak bandwidth in MiByte/s
system.mem_ctrls.busUtil                        11.23                       # Data bus utilization in percentage
system.mem_ctrls.busUtilRead                     6.20                       # Data bus utilization in percentage for reads
system.mem_ctrls.busUtilWrite                    5.03                       # Data bus utilization in percentage for writes
system.mem_ctrls.totGap                   11770986500                       # Total gap between requests
system.mem_ctrls.avgGap                      42456.98                       # Average gap between requests
system.mem_ctrls.masterReadBytes::.cpu.inst      4907712                       # Per-master bytes read from memory
system.mem_ctrls.masterReadBytes::.cpu.data      4436736                       # Per-master bytes read from memory
system.mem_ctrls.masterWriteBytes::.writebacks      7580480                       # Per-master bytes write to memory
system.mem_ctrls.masterReadRate::.cpu.inst 416932762.206140398979                       # Per-master bytes read from memory rate (Bytes/sec)
[...]
system.cpu.icache.tags.occ_task_id_blocks::1024          512                       # Occupied blocks per task id
system.cpu.icache.tags.age_task_id_blocks_1024::0           54                       # Occupied blocks per task id
system.cpu.icache.tags.age_task_id_blocks_1024::1           89                       # Occupied blocks per task id
system.cpu.icache.tags.age_task_id_blocks_1024::2          353                       # Occupied blocks per task id
system.cpu.icache.tags.age_task_id_blocks_1024::3            9                       # Occupied blocks per task id
system.cpu.icache.tags.age_task_id_blocks_1024::4            7                       # Occupied blocks per task id
system.cpu.icache.tags.occ_task_id_percent::1024            1                       # Percentage of cache occupancy per task id
system.cpu.icache.tags.tag_accesses         281227084                       # Number of tag accesses
system.cpu.icache.tags.data_accesses        281227084                       # Number of data accesses
system.cpu.dcache.pwrStateResidencyTicks::UNDEFINED 314145762000                       # Cumulative time (in ticks) in various power states
system.cpu.dcache.demand_hits::.cpu.data    152009688                       # number of demand (read+write) hits
system.cpu.dcache.demand_hits::total        152009688                       # number of demand (read+write) hits
system.cpu.dcache.overall_hits::.cpu.data    152009688                       # number of overall hits
system.cpu.dcache.overall_hits::total       152009688                       # number of overall hits
system.cpu.dcache.demand_misses::.cpu.data       481086                       # number of demand (read+write) misses
system.cpu.dcache.demand_misses::total         481086                       # number of demand (read+write) misses
system.cpu.dcache.overall_misses::.cpu.data       481086                       # number of overall misses
system.cpu.dcache.overall_misses::total        481086                       # number of overall misses
system.cpu.dcache.demand_miss_latency::.cpu.data  31029146500                       # number of demand (read+write) miss cycles
system.cpu.dcache.demand_miss_latency::total  31029146500                       # number of demand (read+write) miss cycles
system.cpu.dcache.overall_miss_latency::.cpu.data  31029146500                       # number of overall miss cycles
system.cpu.dcache.overall_miss_latency::total  31029146500                       # number of overall miss cycles
system.cpu.dcache.demand_accesses::.cpu.data    152490774                       # number of demand (read+write) accesses
system.cpu.dcache.demand_accesses::total    152490774                       # number of demand (read+write) accesses
system.cpu.dcache.overall_accesses::.cpu.data    152490774                       # number of overall (read+write) accesses
system.cpu.dcache.overall_accesses::total    152490774                       # number of overall (read+write) accesses
system.cpu.dcache.demand_miss_rate::.cpu.data     0.003155                       # miss rate for demand accesses
system.cpu.dcache.demand_miss_rate::total     0.003155                       # miss rate for demand accesses
system.cpu.dcache.overall_miss_rate::.cpu.data     0.003155                       # miss rate for overall accesses
system.cpu.dcache.overall_miss_rate::total     0.003155                       # miss rate for overall accesses
system.cpu.dcache.demand_avg_miss_latency::.cpu.data 64498.128193                       # average overall miss latency
system.cpu.dcache.demand_avg_miss_latency::total 64498.128193                       # average overall miss latency
system.cpu.dcache.overall_avg_miss_latency::.cpu.data 64498.128193                       # average overall miss latency
system.cpu.dcache.overall_avg_miss_latency::total 64498.128193                       # average overall miss latency
system.cpu.dcache.blocked_cycles::no_mshrs            0                       # number of cycles access was blocked
system.cpu.dcache.blocked_cycles::no_targets            0                       # number of cycles access was blocked
system.cpu.dcache.blocked::no_mshrs                 0                       # number of cycles access was blocked
system.cpu.dcache.blocked::no_targets               0                       # number of cycles access was blocked
system.cpu.dcache.avg_blocked_cycles::no_mshrs          nan                       # average number of cycles each access was blocked
system.cpu.dcache.avg_blocked_cycles::no_targets          nan                       # average number of cycles each access was blocked
system.cpu.dcache.writebacks::.writebacks       260548                       # number of writebacks
system.cpu.dcache.writebacks::total            260548                       # number of writebacks
system.cpu.dcache.demand_mshr_hits::.cpu.data        96583                       # number of demand (read+write) MSHR hits
system.cpu.dcache.demand_mshr_hits::total        96583                       # number of demand (read+write) MSHR hits
system.cpu.dcache.overall_mshr_hits::.cpu.data        96583                       # number of overall MSHR hits
system.cpu.dcache.overall_mshr_hits::total        96583                       # number of overall MSHR hits
system.cpu.dcache.demand_mshr_misses::.cpu.data       384503                       # number of demand (read+write) MSHR misses
system.cpu.dcache.demand_mshr_misses::total       384503                       # number of demand (read+write) MSHR misses
system.cpu.dcache.overall_mshr_misses::.cpu.data       384503                       # number of overall MSHR misses
system.cpu.dcache.overall_mshr_misses::total       384503                       # number of overall MSHR misses
system.cpu.dcache.overall_mshr_uncacheable_misses::.cpu.data         1872                       # number of overall MSHR uncacheable misses
system.cpu.dcache.overall_mshr_uncacheable_misses::total         1872                       # number of overall MSHR uncacheable misses
system.cpu.dcache.demand_mshr_miss_latency::.cpu.data  24722629500                       # number of demand (read+write) MSHR miss cycles
system.cpu.dcache.demand_mshr_miss_latency::total  24722629500                       # number of demand (read+write) MSHR miss cycles
system.cpu.dcache.overall_mshr_miss_latency::.cpu.data  24722629500                       # number of overall MSHR miss cycles
system.cpu.dcache.overall_mshr_miss_latency::total  24722629500                       # number of overall MSHR miss cycles
system.cpu.dcache.overall_mshr_uncacheable_latency::.cpu.data     90724500                       # number of overall MSHR uncacheable cycles
system.cpu.dcache.overall_mshr_uncacheable_latency::total     90724500                       # number of overall MSHR uncacheable cycles
system.cpu.dcache.demand_mshr_miss_rate::.cpu.data     0.002521                       # mshr miss rate for demand accesses
system.cpu.dcache.demand_mshr_miss_rate::total     0.002521                       # mshr miss rate for demand accesses
system.cpu.dcache.overall_mshr_miss_rate::.cpu.data     0.002521                       # mshr miss rate for overall accesses
system.cpu.dcache.overall_mshr_miss_rate::total     0.002521                       # mshr miss rate for overall accesses
system.cpu.dcache.demand_avg_mshr_miss_latency::.cpu.data 64297.624466                       # average overall mshr miss latency
system.cpu.dcache.demand_avg_mshr_miss_latency::total 64297.624466                       # average overall mshr miss latency
system.cpu.dcache.overall_avg_mshr_miss_latency::.cpu.data 64297.624466                       # average overall mshr miss latency
system.cpu.dcache.overall_avg_mshr_miss_latency::total 64297.624466                       # average overall mshr miss latency
system.cpu.dcache.overall_avg_mshr_uncacheable_latency::.cpu.data 48463.942308                       # average overall mshr uncacheable latency
system.cpu.dcache.overall_avg_mshr_uncacheable_latency::total 48463.942308                       # average overall mshr uncacheable latency
system.cpu.dcache.replacements                 387181                       # number of replacements
system.cpu.dcache.ReadReq_hits::.cpu.data    105688714                       # number of ReadReq hits
system.cpu.dcache.ReadReq_hits::total       105688714                       # number of ReadReq hits
system.cpu.dcache.ReadReq_misses::.cpu.data       270637                       # number of ReadReq misses
system.cpu.dcache.ReadReq_misses::total        270637                       # number of ReadReq misses
system.cpu.dcache.ReadReq_miss_latency::.cpu.data  18352186500                       # number of ReadReq miss cycles
system.cpu.dcache.ReadReq_miss_latency::total  18352186500                       # number of ReadReq miss cycles
system.cpu.dcache.ReadReq_accesses::.cpu.data    105959351                       # number of ReadReq accesses(hits+misses)
system.cpu.dcache.ReadReq_accesses::total    105959351                       # number of ReadReq accesses(hits+misses)
system.cpu.dcache.ReadReq_miss_rate::.cpu.data     0.002554                       # miss rate for ReadReq accesses
system.cpu.dcache.ReadReq_miss_rate::total     0.002554                       # miss rate for ReadReq accesses
system.cpu.dcache.ReadReq_avg_miss_latency::.cpu.data 67811.077199                       # average ReadReq miss latency
system.cpu.dcache.ReadReq_avg_miss_latency::total 67811.077199                       # average ReadReq miss latency
system.cpu.dcache.ReadReq_mshr_hits::.cpu.data          500                       # number of ReadReq MSHR hits
system.cpu.dcache.ReadReq_mshr_hits::total          500                       # number of ReadReq MSHR hits
system.cpu.dcache.ReadReq_mshr_misses::.cpu.data       270137                       # number of ReadReq MSHR misses
system.cpu.dcache.ReadReq_mshr_misses::total       270137                       # number of ReadReq MSHR misses
system.cpu.dcache.ReadReq_mshr_uncacheable::.cpu.data          579                       # number of ReadReq MSHR uncacheable
system.cpu.dcache.ReadReq_mshr_uncacheable::total          579                       # number of ReadReq MSHR uncacheable
system.cpu.dcache.ReadReq_mshr_miss_latency::.cpu.data  18047909000                       # number of ReadReq MSHR miss cycles
system.cpu.dcache.ReadReq_mshr_miss_latency::total  18047909000                       # number of ReadReq MSHR miss cycles
system.cpu.dcache.ReadReq_mshr_uncacheable_latency::.cpu.data     90724500                       # number of ReadReq MSHR uncacheable cycles
system.cpu.dcache.ReadReq_mshr_uncacheable_latency::total     90724500                       # number of ReadReq MSHR uncacheable cycles
system.cpu.dcache.ReadReq_mshr_miss_rate::.cpu.data     0.002549                       # mshr miss rate for ReadReq accesses
system.cpu.dcache.ReadReq_mshr_miss_rate::total     0.002549                       # mshr miss rate for ReadReq accesses
system.cpu.dcache.ReadReq_avg_mshr_miss_latency::.cpu.data 66810.207413                       # average ReadReq mshr miss latency
system.cpu.dcache.ReadReq_avg_mshr_miss_latency::total 66810.207413                       # average ReadReq mshr miss latency
system.cpu.dcache.ReadReq_avg_mshr_uncacheable_latency::.cpu.data 156691.709845                       # average ReadReq mshr uncacheable latency
system.cpu.dcache.ReadReq_avg_mshr_uncacheable_latency::total 156691.709845                       # average ReadReq mshr uncacheable latency
system.cpu.dcache.WriteReq_hits::.cpu.data     46320974                       # number of WriteReq hits
system.cpu.dcache.WriteReq_hits::total       46320974                       # number of WriteReq hits
system.cpu.dcache.WriteReq_misses::.cpu.data       210449                       # number of WriteReq misses
system.cpu.dcache.WriteReq_misses::total       210449                       # number of WriteReq misses
system.cpu.dcache.WriteReq_miss_latency::.cpu.data  12676960000                       # number of WriteReq miss cycles
system.cpu.dcache.WriteReq_miss_latency::total  12676960000                       # number of WriteReq miss cycles
system.cpu.dcache.WriteReq_accesses::.cpu.data     46531423                       # number of WriteReq accesses(hits+misses)
system.cpu.dcache.WriteReq_accesses::total     46531423                       # number of WriteReq accesses(hits+misses)
system.cpu.dcache.WriteReq_miss_rate::.cpu.data     0.004523                       # miss rate for WriteReq accesses
system.cpu.dcache.WriteReq_miss_rate::total     0.004523                       # miss rate for WriteReq accesses
system.cpu.dcache.WriteReq_avg_miss_latency::.cpu.data 60237.682289                       # average WriteReq miss latency
system.cpu.dcache.WriteReq_avg_miss_latency::total 60237.682289                       # average WriteReq miss latency
system.cpu.dcache.WriteReq_mshr_hits::.cpu.data        96083                       # number of WriteReq MSHR hits
system.cpu.dcache.WriteReq_mshr_hits::total        96083                       # number of WriteReq MSHR hits
system.cpu.dcache.WriteReq_mshr_misses::.cpu.data       114366                       # number of WriteReq MSHR misses
system.cpu.dcache.WriteReq_mshr_misses::total       114366                       # number of WriteReq MSHR misses
system.cpu.dcache.WriteReq_mshr_uncacheable::.cpu.data         1293                       # number of WriteReq MSHR uncacheable
system.cpu.dcache.WriteReq_mshr_uncacheable::total         1293                       # number of WriteReq MSHR uncacheable
system.cpu.dcache.WriteReq_mshr_miss_latency::.cpu.data   6674720500                       # number of WriteReq MSHR miss cycles
system.cpu.dcache.WriteReq_mshr_miss_latency::total   6674720500                       # number of WriteReq MSHR miss cycles
system.cpu.dcache.WriteReq_mshr_miss_rate::.cpu.data     0.002458                       # mshr miss rate for WriteReq accesses
system.cpu.dcache.WriteReq_mshr_miss_rate::total     0.002458                       # mshr miss rate for WriteReq accesses
system.cpu.dcache.WriteReq_avg_mshr_miss_latency::.cpu.data 58362.804505                       # average WriteReq mshr miss latency
system.cpu.dcache.WriteReq_avg_mshr_miss_latency::total 58362.804505                       # average WriteReq mshr miss latency
system.cpu.dcache.LoadLockedReq_hits::.cpu.data     10542344                       # number of LoadLockedReq hits
system.cpu.dcache.LoadLockedReq_hits::total     10542344                       # number of LoadLockedReq hits
system.cpu.dcache.LoadLockedReq_misses::.cpu.data         2703                       # number of LoadLockedReq misses
system.cpu.dcache.LoadLockedReq_misses::total         2703                       # number of LoadLockedReq misses
system.cpu.dcache.LoadLockedReq_miss_latency::.cpu.data    215337000                       # number of LoadLockedReq miss cycles
system.cpu.dcache.LoadLockedReq_miss_latency::total    215337000                       # number of LoadLockedReq miss cycles
system.cpu.dcache.LoadLockedReq_accesses::.cpu.data     10545047                       # number of LoadLockedReq accesses(hits+misses)
system.cpu.dcache.LoadLockedReq_accesses::total     10545047                       # number of LoadLockedReq accesses(hits+misses)
system.cpu.dcache.LoadLockedReq_miss_rate::.cpu.data     0.000256                       # miss rate for LoadLockedReq accesses
system.cpu.dcache.LoadLockedReq_miss_rate::total     0.000256                       # miss rate for LoadLockedReq accesses
system.cpu.dcache.LoadLockedReq_avg_miss_latency::.cpu.data 79665.926748                       # average LoadLockedReq miss latency
system.cpu.dcache.LoadLockedReq_avg_miss_latency::total 79665.926748                       # average LoadLockedReq miss latency
system.cpu.dcache.LoadLockedReq_mshr_hits::.cpu.data            7                       # number of LoadLockedReq MSHR hits
system.cpu.dcache.LoadLockedReq_mshr_hits::total            7                       # number of LoadLockedReq MSHR hits
system.cpu.dcache.LoadLockedReq_mshr_misses::.cpu.data         2696                       # number of LoadLockedReq MSHR misses
system.cpu.dcache.LoadLockedReq_mshr_misses::total         2696                       # number of LoadLockedReq MSHR misses
system.cpu.dcache.LoadLockedReq_mshr_miss_latency::.cpu.data    212107000                       # number of LoadLockedReq MSHR miss cycles
system.cpu.dcache.LoadLockedReq_mshr_miss_latency::total    212107000                       # number of LoadLockedReq MSHR miss cycles
system.cpu.dcache.LoadLockedReq_mshr_miss_rate::.cpu.data     0.000256                       # mshr miss rate for LoadLockedReq accesses
system.cpu.dcache.LoadLockedReq_mshr_miss_rate::total     0.000256                       # mshr miss rate for LoadLockedReq accesses
system.cpu.dcache.LoadLockedReq_avg_mshr_miss_latency::.cpu.data 78674.703264                       # average LoadLockedReq mshr miss latency
system.cpu.dcache.LoadLockedReq_avg_mshr_miss_latency::total 78674.703264                       # average LoadLockedReq mshr miss latency
system.cpu.dcache.StoreCondReq_hits::.cpu.data     10545020                       # number of StoreCondReq hits
system.cpu.dcache.StoreCondReq_hits::total     10545020                       # number of StoreCondReq hits
system.cpu.dcache.StoreCondReq_accesses::.cpu.data     10545020                       # number of StoreCondReq accesses(hits+misses)
system.cpu.dcache.StoreCondReq_accesses::total     10545020                       # number of StoreCondReq accesses(hits+misses)
system.cpu.dcache.tags.pwrStateResidencyTicks::UNDEFINED 314145762000                       # Cumulative time (in ticks) in various power states
system.cpu.dcache.tags.tagsinuse                 1024                       # Cycle average of tags in use
system.cpu.dcache.tags.total_refs           173553889                       # Total number of references to valid blocks.
system.cpu.dcache.tags.sampled_refs            388205                       # Sample count of references to valid blocks.
system.cpu.dcache.tags.avg_refs            447.067629                       # Average number of references to valid blocks.
system.cpu.dcache.tags.warmup_cycle                 0                       # Cycle when the warmup percentage was hit.
system.cpu.dcache.tags.occ_blocks::.cpu.data         1024                       # Average occupied blocks per requestor
system.cpu.dcache.tags.occ_percent::.cpu.data            1                       # Average percentage of cache occupancy
system.cpu.dcache.tags.occ_percent::total            1                       # Average percentage of cache occupancy
system.cpu.dcache.tags.occ_task_id_blocks::1024         1024                       # Occupied blocks per task id
system.cpu.dcache.tags.age_task_id_blocks_1024::0           17                       # Occupied blocks per task id
system.cpu.dcache.tags.age_task_id_blocks_1024::1          132                       # Occupied blocks per task id
system.cpu.dcache.tags.age_task_id_blocks_1024::2          633                       # Occupied blocks per task id
system.cpu.dcache.tags.age_task_id_blocks_1024::3          215                       # Occupied blocks per task id
system.cpu.dcache.tags.age_task_id_blocks_1024::4           27                       # Occupied blocks per task id
system.cpu.dcache.tags.occ_task_id_percent::1024            1                       # Percentage of cache occupancy per task id
system.cpu.dcache.tags.tag_accesses         347548863                       # Number of tag accesses
system.cpu.dcache.tags.data_accesses        347548863                       # Number of data accesses

---------- End Simulation Statistics   ----------
