
---------- Begin Simulation Statistics ----------
final_tick                               2542011272500                       # Number of ticks from beginning of simulation (restored from checkpoints and never reset)
host_inst_rate                                 219496                       # Simulator instruction rate (inst/s)
host_mem_usage                                 740740                       # Number of bytes of host memory used
host_op_rate                                   219495                       # Simulator op (including micro ops) rate (op/s)
host_seconds                                    19.12                       # Real time elapsed on the host
host_tick_rate                              627681638                       # Simulator tick rate (ticks/s)
sim_freq                                 1000000000000                       # Frequency of simulated ticks
sim_insts                                     4196790                       # Number of instructions simulated
sim_ops                                       4196790                       # Number of ops (including micro ops) simulated
sim_seconds                                  0.012001                       # Number of seconds simulated
sim_ticks                                 12001427500                       # Number of ticks simulated
system.cpu.branchPred.BTBCorrect                    0                       # Number of correct BTB predictions (this stat may not work properly.
system.cpu.branchPred.BTBHitPct             46.787204                       # BTB Hit Percentage
system.cpu.branchPred.BTBHits                  417784                       # Number of BTB hits
system.cpu.branchPred.BTBLookups               892945                       # Number of BTB lookups
system.cpu.branchPred.RASInCorrect               2361                       # Number of incorrect RAS predictions.
system.cpu.branchPred.condIncorrect             93673                       # Number of conditional branches incorrect
system.cpu.branchPred.condPredicted            816904                       # Number of conditional branches predicted
system.cpu.branchPred.indirectHits              53011                       # Number of indirect target hits.
system.cpu.branchPred.indirectLookups          279399                       # Number of indirect predictor lookups.
system.cpu.branchPred.indirectMisses           226388                       # Number of indirect misses.
system.cpu.branchPred.lookups                  994874                       # Number of BP lookups
system.cpu.branchPred.usedRAS                   66025                       # Number of times the RAS was used to get a target.
system.cpu.branchPredindirectMispredicted        26934                       # Number of mispredicted indirect branches.
system.cpu.committedInsts                     4196790                       # Number of instructions committed
system.cpu.committedOps                       4196790                       # Number of ops (including micro ops) committed
system.cpu.cpi                               5.716154                       # CPI: cycles per instruction
system.cpu.discardedOps                        200579                       # Number of ops (including micro ops) which were discarded before commit
system.cpu.dtb.data_accesses                   608735                       # DTB accesses
system.cpu.dtb.data_acv                           130                       # DTB access violations
system.cpu.dtb.data_hits                      1456372                       # DTB hits
system.cpu.dtb.data_misses                       7345                       # DTB misses
system.cpu.dtb.fetch_accesses                       0                       # ITB accesses
system.cpu.dtb.fetch_acv                            0                       # ITB acv
system.cpu.dtb.fetch_hits                           0                       # ITB hits
system.cpu.dtb.fetch_misses                         0                       # ITB misses
system.cpu.dtb.read_accesses                   407258                       # DTB read accesses
system.cpu.dtb.read_acv                            43                       # DTB read access violations
system.cpu.dtb.read_hits                       853616                       # DTB read hits
system.cpu.dtb.read_misses                       6546                       # DTB read misses
system.cpu.dtb.write_accesses                  201477                       # DTB write accesses
system.cpu.dtb.write_acv                           87                       # DTB write access violations
system.cpu.dtb.write_hits                      602756                       # DTB write hits
system.cpu.dtb.write_misses                       799                       # DTB write misses
system.cpu.fetch2.amo_instructions                  0                       # Number of memory atomic instructions successfully decoded
system.cpu.fetch2.fp_instructions               18029                       # Number of floating point instructions successfully decoded
system.cpu.fetch2.int_instructions            3433414                       # Number of integer instructions successfully decoded
system.cpu.fetch2.load_instructions           1054662                       # Number of memory load instructions successfully decoded
system.cpu.fetch2.store_instructions           665073                       # Number of memory store instructions successfully decoded
system.cpu.fetch2.vec_instructions                  0                       # Number of SIMD instructions successfully decoded
system.cpu.idleCycles                        16806696                       # Total number of cycles that the object has spent stopped
system.cpu.ipc                               0.174943                       # IPC: instructions per cycle
system.cpu.itb.data_accesses                        0                       # DTB accesses
system.cpu.itb.data_acv                             0                       # DTB access violations
system.cpu.itb.data_hits                            0                       # DTB hits
system.cpu.itb.data_misses                          0                       # DTB misses
system.cpu.itb.fetch_accesses                 1026682                       # ITB accesses
system.cpu.itb.fetch_acv                          788                       # ITB acv
system.cpu.itb.fetch_hits                     1019830                       # ITB hits
system.cpu.itb.fetch_misses                      6852                       # ITB misses
system.cpu.itb.read_accesses                        0                       # DTB read accesses
system.cpu.itb.read_acv                             0                       # DTB read access violations
system.cpu.itb.read_hits                            0                       # DTB read hits
system.cpu.itb.read_misses                          0                       # DTB read misses
system.cpu.itb.write_accesses                       0                       # DTB write accesses
system.cpu.itb.write_acv                            0                       # DTB write access violations
system.cpu.itb.write_hits                           0                       # DTB write hits
system.cpu.itb.write_misses                         0                       # DTB write misses
system.cpu.kern.callpal::swpctx                   574      9.43%      9.43% # number of callpals executed
system.cpu.kern.callpal::tbi                       25      0.41%      9.85% # number of callpals executed
system.cpu.kern.callpal::swpipl                  4218     69.33%     79.17% # number of callpals executed
system.cpu.kern.callpal::rdps                      50      0.82%     80.00% # number of callpals executed
system.cpu.kern.callpal::wrusp                      4      0.07%     80.06% # number of callpals executed
system.cpu.kern.callpal::rdusp                      3      0.05%     80.11% # number of callpals executed
system.cpu.kern.callpal::rti                      897     14.74%     94.86% # number of callpals executed
system.cpu.kern.callpal::callsys                  235      3.86%     98.72% # number of callpals executed
system.cpu.kern.callpal::imb                       78      1.28%    100.00% # number of callpals executed
system.cpu.kern.callpal::total                   6084                       # number of callpals executed
system.cpu.kern.inst.arm                            0                       # number of arm instructions executed
system.cpu.kern.inst.hwrei                      14428                       # number of hwrei instructions executed
system.cpu.kern.inst.quiesce                        9                       # number of quiesce instructions executed
system.cpu.kern.ipl_count::0                     2430     47.34%     47.34% # number of times we switched to this ipl
system.cpu.kern.ipl_count::21                       5      0.10%     47.44% # number of times we switched to this ipl
system.cpu.kern.ipl_count::22                      13      0.25%     47.69% # number of times we switched to this ipl
system.cpu.kern.ipl_count::31                    2685     52.31%    100.00% # number of times we switched to this ipl
system.cpu.kern.ipl_count::total                 5133                       # number of times we switched to this ipl
system.cpu.kern.ipl_good::0                      2417     49.81%     49.81% # number of times we switched to this ipl from a different ipl
system.cpu.kern.ipl_good::21                        5      0.10%     49.92% # number of times we switched to this ipl from a different ipl
system.cpu.kern.ipl_good::22                       13      0.27%     50.19% # number of times we switched to this ipl from a different ipl
system.cpu.kern.ipl_good::31                     2417     49.81%    100.00% # number of times we switched to this ipl from a different ipl
system.cpu.kern.ipl_good::total                  4852                       # number of times we switched to this ipl from a different ipl
system.cpu.kern.ipl_ticks::0              11074185000     92.22%     92.22% # number of cycles we spent at this ipl
system.cpu.kern.ipl_ticks::21                 9266000      0.08%     92.30% # number of cycles we spent at this ipl
system.cpu.kern.ipl_ticks::22                18715000      0.16%     92.46% # number of cycles we spent at this ipl
system.cpu.kern.ipl_ticks::31               906007000      7.54%    100.00% # number of cycles we spent at this ipl
system.cpu.kern.ipl_ticks::total          12008173000                       # number of cycles we spent at this ipl
system.cpu.kern.ipl_used::0                  0.994650                       # fraction of swpipl calls that actually changed the ipl
system.cpu.kern.ipl_used::21                        1                       # fraction of swpipl calls that actually changed the ipl
system.cpu.kern.ipl_used::22                        1                       # fraction of swpipl calls that actually changed the ipl
system.cpu.kern.ipl_used::31                 0.900186                       # fraction of swpipl calls that actually changed the ipl
system.cpu.kern.ipl_used::total              0.945256                       # fraction of swpipl calls that actually changed the ipl
system.cpu.kern.mode_good::kernel                 868                      
system.cpu.kern.mode_good::user                   868                      
system.cpu.kern.mode_good::idle                     0                      
system.cpu.kern.mode_switch::kernel              1471                       # number of protection mode switches
system.cpu.kern.mode_switch::user                 868                       # number of protection mode switches
system.cpu.kern.mode_switch::idle                   0                       # number of protection mode switches
system.cpu.kern.mode_switch_good::kernel     0.590075                       # fraction of useful protection mode switches
system.cpu.kern.mode_switch_good::user              1                       # fraction of useful protection mode switches
system.cpu.kern.mode_switch_good::idle            nan                       # fraction of useful protection mode switches
system.cpu.kern.mode_switch_good::total      0.742198                       # fraction of useful protection mode switches
system.cpu.kern.mode_ticks::kernel         8082601000     67.31%     67.31% # number of ticks spent at the given mode
system.cpu.kern.mode_ticks::user           3925521000     32.69%    100.00% # number of ticks spent at the given mode
system.cpu.kern.mode_ticks::idle                    0      0.00%    100.00% # number of ticks spent at the given mode
system.cpu.kern.swap_context                      574                       # number of times the context was actually changed
system.cpu.numCycles                         23989497                       # number of cpu cycles simulated
system.cpu.numFetchSuspends                         9                       # Number of times Execute suspended instruction fetching
system.cpu.numWorkItemsCompleted                    0                       # number of work items this cpu completed
system.cpu.numWorkItemsStarted                      0                       # number of work items this cpu started
system.cpu.op_class_0::No_OpClass               85413      2.04%      2.04% # Class of committed instruction
system.cpu.op_class_0::IntAlu                 2541976     60.57%     62.60% # Class of committed instruction
system.cpu.op_class_0::IntMult                   3684      0.09%     62.69% # Class of committed instruction
system.cpu.op_class_0::IntDiv                       0      0.00%     62.69% # Class of committed instruction
system.cpu.op_class_0::FloatAdd                  8286      0.20%     62.89% # Class of committed instruction
system.cpu.op_class_0::FloatCmp                     0      0.00%     62.89% # Class of committed instruction
system.cpu.op_class_0::FloatCvt                     0      0.00%     62.89% # Class of committed instruction
system.cpu.op_class_0::FloatMult                    0      0.00%     62.89% # Class of committed instruction
system.cpu.op_class_0::FloatMultAcc                 0      0.00%     62.89% # Class of committed instruction
system.cpu.op_class_0::FloatDiv                  1593      0.04%     62.93% # Class of committed instruction
system.cpu.op_class_0::FloatMisc                    0      0.00%     62.93% # Class of committed instruction
system.cpu.op_class_0::FloatSqrt                    0      0.00%     62.93% # Class of committed instruction
system.cpu.op_class_0::SimdAdd                      0      0.00%     62.93% # Class of committed instruction
system.cpu.op_class_0::SimdAddAcc                   0      0.00%     62.93% # Class of committed instruction
system.cpu.op_class_0::SimdAlu                      0      0.00%     62.93% # Class of committed instruction
system.cpu.op_class_0::SimdCmp                      0      0.00%     62.93% # Class of committed instruction
system.cpu.op_class_0::SimdCvt                      0      0.00%     62.93% # Class of committed instruction
system.cpu.op_class_0::SimdMisc                     0      0.00%     62.93% # Class of committed instruction
system.cpu.op_class_0::SimdMult                     0      0.00%     62.93% # Class of committed instruction
system.cpu.op_class_0::SimdMultAcc                  0      0.00%     62.93% # Class of committed instruction
system.cpu.op_class_0::SimdShift                    0      0.00%     62.93% # Class of committed instruction
system.cpu.op_class_0::SimdShiftAcc                 0      0.00%     62.93% # Class of committed instruction
system.cpu.op_class_0::SimdDiv                      0      0.00%     62.93% # Class of committed instruction
system.cpu.op_class_0::SimdSqrt                     0      0.00%     62.93% # Class of committed instruction
system.cpu.op_class_0::SimdFloatAdd                 0      0.00%     62.93% # Class of committed instruction
system.cpu.op_class_0::SimdFloatAlu                 0      0.00%     62.93% # Class of committed instruction
system.cpu.op_class_0::SimdFloatCmp                 0      0.00%     62.93% # Class of committed instruction
system.cpu.op_class_0::SimdFloatCvt                 0      0.00%     62.93% # Class of committed instruction
system.cpu.op_class_0::SimdFloatDiv                 0      0.00%     62.93% # Class of committed instruction
system.cpu.op_class_0::SimdFloatMisc                0      0.00%     62.93% # Class of committed instruction
system.cpu.op_class_0::SimdFloatMult                0      0.00%     62.93% # Class of committed instruction
system.cpu.op_class_0::SimdFloatMultAcc             0      0.00%     62.93% # Class of committed instruction
system.cpu.op_class_0::SimdFloatSqrt                0      0.00%     62.93% # Class of committed instruction
system.cpu.op_class_0::SimdReduceAdd                0      0.00%     62.93% # Class of committed instruction
system.cpu.op_class_0::SimdReduceAlu                0      0.00%     62.93% # Class of committed instruction
system.cpu.op_class_0::SimdReduceCmp                0      0.00%     62.93% # Class of committed instruction
system.cpu.op_class_0::SimdFloatReduceAdd            0      0.00%     62.93% # Class of committed instruction
system.cpu.op_class_0::SimdFloatReduceCmp            0      0.00%     62.93% # Class of committed instruction
system.cpu.op_class_0::SimdAes                      0      0.00%     62.93% # Class of committed instruction
system.cpu.op_class_0::SimdAesMix                   0      0.00%     62.93% # Class of committed instruction
system.cpu.op_class_0::SimdSha1Hash                 0      0.00%     62.93% # Class of committed instruction
system.cpu.op_class_0::SimdSha1Hash2                0      0.00%     62.93% # Class of committed instruction
system.cpu.op_class_0::SimdSha256Hash               0      0.00%     62.93% # Class of committed instruction
system.cpu.op_class_0::SimdSha256Hash2              0      0.00%     62.93% # Class of committed instruction
system.cpu.op_class_0::SimdShaSigma2                0      0.00%     62.93% # Class of committed instruction
system.cpu.op_class_0::SimdShaSigma3                0      0.00%     62.93% # Class of committed instruction
system.cpu.op_class_0::SimdPredAlu                  0      0.00%     62.93% # Class of committed instruction
system.cpu.op_class_0::MemRead                 839539     20.00%     82.93% # Class of committed instruction
system.cpu.op_class_0::MemWrite                592667     14.12%     97.05% # Class of committed instruction
system.cpu.op_class_0::FloatMemRead              9988      0.24%     97.29% # Class of committed instruction
system.cpu.op_class_0::FloatMemWrite             8788      0.21%     97.50% # Class of committed instruction
system.cpu.op_class_0::IprAccess               104856      2.50%    100.00% # Class of committed instruction
system.cpu.op_class_0::InstPrefetch                 0      0.00%    100.00% # Class of committed instruction
system.cpu.op_class_0::total                  4196790                       # Class of committed instruction
system.cpu.quiesceCycles                        13358                       # Total number of cycles that CPU has spent quiesced or waiting for an interrupt
system.cpu.tickCycles                         7182801                       # Number of cycles that the object actually ticked
system.disk0.dma_read_bytes                         0                       # Number of bytes transfered via DMA reads (not PRD).
system.disk0.dma_read_full_pages                    0                       # Number of full page size DMA reads (not PRD).
system.disk0.dma_read_txs                           0                       # Number of DMA read transactions (not PRD).
system.disk0.dma_write_bytes                    12288                       # Number of bytes transfered via DMA writes.
system.disk0.dma_write_full_pages                   0                       # Number of full page size DMA writes.
system.disk0.dma_write_txs                          3                       # Number of DMA write transactions.
system.disk2.dma_read_bytes                         0                       # Number of bytes transfered via DMA reads (not PRD).
system.disk2.dma_read_full_pages                    0                       # Number of full page size DMA reads (not PRD).
system.disk2.dma_read_txs                           0                       # Number of DMA read transactions (not PRD).
system.disk2.dma_write_bytes                        0                       # Number of bytes transfered via DMA writes.
system.disk2.dma_write_full_pages                   0                       # Number of full page size DMA writes.
system.disk2.dma_write_txs                          0                       # Number of DMA write transactions.
system.membus.snoop_filter.hit_multi_requests          437                       # Number of requests hitting in the snoop filter with multiple (>1) holders of the requested data.
system.membus.snoop_filter.hit_multi_snoops            0                       # Number of snoops hitting in the snoop filter with multiple (>1) holders of the requested data.
system.membus.snoop_filter.hit_single_requests       156878                       # Number of requests hitting in the snoop filter with a single holder of the requested data.
system.membus.snoop_filter.hit_single_snoops            0                       # Number of snoops hitting in the snoop filter with a single holder of the requested data.
system.membus.snoop_filter.tot_requests        315365                       # Total number of requests made to the snoop filter.
system.membus.snoop_filter.tot_snoops               0                       # Total number of snoops made to the snoop filter.
system.tsunami.ethernet.coalescedRxDesc           nan                       # average number of RxDesc's coalesced into each post
system.tsunami.ethernet.coalescedRxIdle           nan                       # average number of RxIdle's coalesced into each post
system.tsunami.ethernet.coalescedRxOk             nan                       # average number of RxOk's coalesced into each post
system.tsunami.ethernet.coalescedRxOrn            nan                       # average number of RxOrn's coalesced into each post
system.tsunami.ethernet.coalescedSwi              nan                       # average number of Swi's coalesced into each post
system.tsunami.ethernet.coalescedTotal            nan                       # average number of interrupts coalesced into each post
system.tsunami.ethernet.coalescedTxDesc           nan                       # average number of TxDesc's coalesced into each post
system.tsunami.ethernet.coalescedTxIdle           nan                       # average number of TxIdle's coalesced into each post
system.tsunami.ethernet.coalescedTxOk             nan                       # average number of TxOk's coalesced into each post
system.tsunami.ethernet.descDMAReads                0                       # Number of descriptors the device read w/ DMA
system.tsunami.ethernet.descDMAWrites               0                       # Number of descriptors the device wrote w/ DMA
system.tsunami.ethernet.descDmaReadBytes            0                       # number of descriptor bytes read w/ DMA
system.tsunami.ethernet.descDmaWriteBytes            0                       # number of descriptor bytes write w/ DMA
system.tsunami.ethernet.droppedPackets              0                       # number of packets dropped
system.tsunami.ethernet.postedInterrupts            0                       # number of posts to CPU
system.tsunami.ethernet.postedRxDesc                0                       # number of RxDesc interrupts posted to CPU
system.tsunami.ethernet.postedRxIdle                0                       # number of rxIdle interrupts posted to CPU
system.tsunami.ethernet.postedRxOk                  0                       # number of RxOk interrupts posted to CPU
system.tsunami.ethernet.postedRxOrn                 0                       # number of RxOrn posted to CPU
system.tsunami.ethernet.postedSwi                   0                       # number of software interrupts posted to CPU
system.tsunami.ethernet.postedTxDesc                0                       # number of TxDesc interrupts posted to CPU
system.tsunami.ethernet.postedTxIdle                0                       # number of TxIdle interrupts posted to CPU
system.tsunami.ethernet.postedTxOk                  0                       # number of TxOk interrupts posted to CPU
system.tsunami.ethernet.totalRxDesc                 0                       # total number of RxDesc written to ISR
system.tsunami.ethernet.totalRxIdle                 0                       # total number of RxIdle written to ISR
system.tsunami.ethernet.totalRxOk                   0                       # total number of RxOk written to ISR
system.tsunami.ethernet.totalRxOrn                  0                       # total number of RxOrn written to ISR
system.tsunami.ethernet.totalSwi                    0                       # total number of Swi written to ISR
system.tsunami.ethernet.totalTxDesc                 0                       # total number of TxDesc written to ISR
system.tsunami.ethernet.totalTxIdle                 0                       # total number of TxIdle written to ISR
system.tsunami.ethernet.totalTxOk                   0                       # total number of TxOk written to ISR
system.bridge.pwrStateResidencyTicks::UNDEFINED 2542011272500                       # Cumulative time (in ticks) in various power states
system.voltage_domain.voltage                       1                       # Voltage in Volts
system.iocache.pwrStateResidencyTicks::UNDEFINED 2542011272500                       # Cumulative time (in ticks) in various power states
system.iocache.demand_misses::.tsunami.ide          195                       # number of demand (read+write) misses
system.iocache.demand_misses::total               195                       # number of demand (read+write) misses
system.iocache.overall_misses::.tsunami.ide          195                       # number of overall misses
system.iocache.overall_misses::total              195                       # number of overall misses
system.iocache.demand_miss_latency::.tsunami.ide     22961457                       # number of demand (read+write) miss cycles
system.iocache.demand_miss_latency::total     22961457                       # number of demand (read+write) miss cycles
system.iocache.overall_miss_latency::.tsunami.ide     22961457                       # number of overall miss cycles
system.iocache.overall_miss_latency::total     22961457                       # number of overall miss cycles
system.iocache.demand_accesses::.tsunami.ide          195                       # number of demand (read+write) accesses
system.iocache.demand_accesses::total             195                       # number of demand (read+write) accesses
system.iocache.overall_accesses::.tsunami.ide          195                       # number of overall (read+write) accesses
system.iocache.overall_accesses::total            195                       # number of overall (read+write) accesses
system.iocache.demand_miss_rate::.tsunami.ide            1                       # miss rate for demand accesses
system.iocache.demand_miss_rate::total              1                       # miss rate for demand accesses
system.iocache.overall_miss_rate::.tsunami.ide            1                       # miss rate for overall accesses
system.iocache.overall_miss_rate::total             1                       # miss rate for overall accesses
system.iocache.demand_avg_miss_latency::.tsunami.ide 117751.061538                       # average overall miss latency
system.iocache.demand_avg_miss_latency::total 117751.061538                       # average overall miss latency
system.iocache.overall_avg_miss_latency::.tsunami.ide 117751.061538                       # average overall miss latency
system.iocache.overall_avg_miss_latency::total 117751.061538                       # average overall miss latency
system.iocache.blocked_cycles::no_mshrs             0                       # number of cycles access was blocked
system.iocache.blocked_cycles::no_targets            0                       # number of cycles access was blocked
system.iocache.blocked::no_mshrs                    0                       # number of cycles access was blocked
system.iocache.blocked::no_targets                  0                       # number of cycles access was blocked
system.iocache.avg_blocked_cycles::no_mshrs          nan                       # average number of cycles each access was blocked
system.iocache.avg_blocked_cycles::no_targets          nan                       # average number of cycles each access was blocked
system.iocache.writebacks::.writebacks            176                       # number of writebacks
system.iocache.writebacks::total                  176                       # number of writebacks
system.iocache.demand_mshr_misses::.tsunami.ide          195                       # number of demand (read+write) MSHR misses
system.iocache.demand_mshr_misses::total          195                       # number of demand (read+write) MSHR misses
system.iocache.overall_mshr_misses::.tsunami.ide          195                       # number of overall MSHR misses
system.iocache.overall_mshr_misses::total          195                       # number of overall MSHR misses
system.iocache.demand_mshr_miss_latency::.tsunami.ide     13197492                       # number of demand (read+write) MSHR miss cycles
system.iocache.demand_mshr_miss_latency::total     13197492                       # number of demand (read+write) MSHR miss cycles
system.iocache.overall_mshr_miss_latency::.tsunami.ide     13197492                       # number of overall MSHR miss cycles
system.iocache.overall_mshr_miss_latency::total     13197492                       # number of overall MSHR miss cycles
system.iocache.demand_mshr_miss_rate::.tsunami.ide            1                       # mshr miss rate for demand accesses
system.iocache.demand_mshr_miss_rate::total            1                       # mshr miss rate for demand accesses
system.iocache.overall_mshr_miss_rate::.tsunami.ide            1                       # mshr miss rate for overall accesses
system.iocache.overall_mshr_miss_rate::total            1                       # mshr miss rate for overall accesses
system.iocache.demand_avg_mshr_miss_latency::.tsunami.ide 67679.446154                       # average overall mshr miss latency
system.iocache.demand_avg_mshr_miss_latency::total 67679.446154                       # average overall mshr miss latency
system.iocache.overall_avg_mshr_miss_latency::.tsunami.ide 67679.446154                       # average overall mshr miss latency
system.iocache.overall_avg_mshr_miss_latency::total 67679.446154                       # average overall mshr miss latency
system.iocache.replacements                       179                       # number of replacements
system.iocache.ReadReq_misses::.tsunami.ide            3                       # number of ReadReq misses
system.iocache.ReadReq_misses::total                3                       # number of ReadReq misses
system.iocache.ReadReq_miss_latency::.tsunami.ide       349497                       # number of ReadReq miss cycles
system.iocache.ReadReq_miss_latency::total       349497                       # number of ReadReq miss cycles
system.iocache.ReadReq_accesses::.tsunami.ide            3                       # number of ReadReq accesses(hits+misses)
system.iocache.ReadReq_accesses::total              3                       # number of ReadReq accesses(hits+misses)
system.iocache.ReadReq_miss_rate::.tsunami.ide            1                       # miss rate for ReadReq accesses
system.iocache.ReadReq_miss_rate::total             1                       # miss rate for ReadReq accesses
system.iocache.ReadReq_avg_miss_latency::.tsunami.ide       116499                       # average ReadReq miss latency
system.iocache.ReadReq_avg_miss_latency::total       116499                       # average ReadReq miss latency
system.iocache.ReadReq_mshr_misses::.tsunami.ide            3                       # number of ReadReq MSHR misses
system.iocache.ReadReq_mshr_misses::total            3                       # number of ReadReq MSHR misses
system.iocache.ReadReq_mshr_miss_latency::.tsunami.ide       199497                       # number of ReadReq MSHR miss cycles
system.iocache.ReadReq_mshr_miss_latency::total       199497                       # number of ReadReq MSHR miss cycles
system.iocache.ReadReq_mshr_miss_rate::.tsunami.ide            1                       # mshr miss rate for ReadReq accesses
system.iocache.ReadReq_mshr_miss_rate::total            1                       # mshr miss rate for ReadReq accesses
system.iocache.ReadReq_avg_mshr_miss_latency::.tsunami.ide        66499                       # average ReadReq mshr miss latency
system.iocache.ReadReq_avg_mshr_miss_latency::total        66499                       # average ReadReq mshr miss latency
system.iocache.WriteLineReq_misses::.tsunami.ide          192                       # number of WriteLineReq misses
system.iocache.WriteLineReq_misses::total          192                       # number of WriteLineReq misses
system.iocache.WriteLineReq_miss_latency::.tsunami.ide     22611960                       # number of WriteLineReq miss cycles
system.iocache.WriteLineReq_miss_latency::total     22611960                       # number of WriteLineReq miss cycles
system.iocache.WriteLineReq_accesses::.tsunami.ide          192                       # number of WriteLineReq accesses(hits+misses)
system.iocache.WriteLineReq_accesses::total          192                       # number of WriteLineReq accesses(hits+misses)
system.iocache.WriteLineReq_miss_rate::.tsunami.ide            1                       # miss rate for WriteLineReq accesses
system.iocache.WriteLineReq_miss_rate::total            1                       # miss rate for WriteLineReq accesses
system.iocache.WriteLineReq_avg_miss_latency::.tsunami.ide 117770.625000                       # average WriteLineReq miss latency
system.iocache.WriteLineReq_avg_miss_latency::total 117770.625000                       # average WriteLineReq miss latency
system.iocache.WriteLineReq_mshr_misses::.tsunami.ide          192                       # number of WriteLineReq MSHR misses
system.iocache.WriteLineReq_mshr_misses::total          192                       # number of WriteLineReq MSHR misses
system.iocache.WriteLineReq_mshr_miss_latency::.tsunami.ide     12997995                       # number of WriteLineReq MSHR miss cycles
system.iocache.WriteLineReq_mshr_miss_latency::total     12997995                       # number of WriteLineReq MSHR miss cycles
system.iocache.WriteLineReq_mshr_miss_rate::.tsunami.ide            1                       # mshr miss rate for WriteLineReq accesses
system.iocache.WriteLineReq_mshr_miss_rate::total            1                       # mshr miss rate for WriteLineReq accesses
system.iocache.WriteLineReq_avg_mshr_miss_latency::.tsunami.ide 67697.890625                       # average WriteLineReq mshr miss latency
system.iocache.WriteLineReq_avg_mshr_miss_latency::total 67697.890625                       # average WriteLineReq mshr miss latency
system.iocache.tags.pwrStateResidencyTicks::UNDEFINED 2542011272500                       # Cumulative time (in ticks) in various power states
system.iocache.tags.tagsinuse                3.290852                       # Cycle average of tags in use
system.iocache.tags.total_refs                    179                       # Total number of references to valid blocks.
system.iocache.tags.sampled_refs                  179                       # Sample count of references to valid blocks.
system.iocache.tags.avg_refs                        1                       # Average number of references to valid blocks.
system.iocache.tags.warmup_cycle         2539541762000                       # Cycle when the warmup percentage was hit.
system.iocache.tags.occ_blocks::.tsunami.ide     3.290852                       # Average occupied blocks per requestor
system.iocache.tags.occ_percent::.tsunami.ide     0.205678                       # Average percentage of cache occupancy
system.iocache.tags.occ_percent::total       0.205678                       # Average percentage of cache occupancy
system.iocache.tags.occ_task_id_blocks::1023           16                       # Occupied blocks per task id
system.iocache.tags.age_task_id_blocks_1023::3           16                       # Occupied blocks per task id
system.iocache.tags.occ_task_id_percent::1023            1                       # Percentage of cache occupancy per task id
system.iocache.tags.tag_accesses                 1755                       # Number of tag accesses
system.iocache.tags.data_accesses                1755                       # Number of data accesses
system.membus.pwrStateResidencyTicks::UNDEFINED 2542011272500                       # Cumulative time (in ticks) in various power states
system.membus.trans_dist::ReadReq                 108                       # Transaction distribution
system.membus.trans_dist::ReadResp             129443                       # Transaction distribution
system.membus.trans_dist::WriteReq                100                       # Transaction distribution
system.membus.trans_dist::WriteResp               100                       # Transaction distribution
system.membus.trans_dist::WritebackDirty        34919                       # Transaction distribution
system.membus.trans_dist::WritebackClean        87744                       # Transaction distribution
system.membus.trans_dist::CleanEvict            34195                       # Transaction distribution
system.membus.trans_dist::UpgradeReq               16                       # Transaction distribution
system.membus.trans_dist::ReadExReq             28962                       # Transaction distribution
system.membus.trans_dist::ReadExResp            28962                       # Transaction distribution
system.membus.trans_dist::ReadCleanReq          88335                       # Transaction distribution
system.membus.trans_dist::ReadSharedReq         41002                       # Transaction distribution
system.membus.trans_dist::BadAddressError            2                       # Transaction distribution
system.membus.trans_dist::InvalidateReq           192                       # Transaction distribution
system.membus.pkt_count_system.iocache.mem_side::system.mem_ctrls.port          374                       # Packet count per connected master and slave (bytes)
system.membus.pkt_count_system.iocache.mem_side::total          374                       # Packet count per connected master and slave (bytes)
system.membus.pkt_count_system.cpu.icache.mem_side::system.mem_ctrls.port       264352                       # Packet count per connected master and slave (bytes)
system.membus.pkt_count_system.cpu.icache.mem_side::total       264352                       # Packet count per connected master and slave (bytes)
system.membus.pkt_count_system.cpu.dcache.mem_side::system.bridge.slave          416                       # Packet count per connected master and slave (bytes)
system.membus.pkt_count_system.cpu.dcache.mem_side::system.mem_ctrls.port       208869                       # Packet count per connected master and slave (bytes)
system.membus.pkt_count_system.cpu.dcache.mem_side::system.membus.badaddr_responder.pio            4                       # Packet count per connected master and slave (bytes)
system.membus.pkt_count_system.cpu.dcache.mem_side::total       209289                       # Packet count per connected master and slave (bytes)
system.membus.pkt_count::total                 474015                       # Packet count per connected master and slave (bytes)
system.membus.pkt_size_system.iocache.mem_side::system.mem_ctrls.port        11264                       # Cumulative packet size per connected master and slave (bytes)
system.membus.pkt_size_system.iocache.mem_side::total        11264                       # Cumulative packet size per connected master and slave (bytes)
system.membus.pkt_size_system.cpu.icache.mem_side::system.mem_ctrls.port     11265088                       # Cumulative packet size per connected master and slave (bytes)
system.membus.pkt_size_system.cpu.icache.mem_side::total     11265088                       # Cumulative packet size per connected master and slave (bytes)
system.membus.pkt_size_system.cpu.dcache.mem_side::system.bridge.slave          441                       # Cumulative packet size per connected master and slave (bytes)
system.membus.pkt_size_system.cpu.dcache.mem_side::system.mem_ctrls.port      6700928                       # Cumulative packet size per connected master and slave (bytes)
system.membus.pkt_size_system.cpu.dcache.mem_side::total      6701369                       # Cumulative packet size per connected master and slave (bytes)
system.membus.pkt_size::total                17977721                       # Cumulative packet size per connected master and slave (bytes)
system.membus.snoops                               65                       # Total snoops (count)
system.membus.snoopTraffic                       4160                       # Total snoop traffic (bytes)
system.membus.snoop_fanout::samples            158715                       # Request fanout histogram
system.membus.snoop_fanout::mean             0.002760                       # Request fanout histogram
system.membus.snoop_fanout::stdev            0.052460                       # Request fanout histogram
system.membus.snoop_fanout::underflows              0      0.00%      0.00% # Request fanout histogram
system.membus.snoop_fanout::0                  158277     99.72%     99.72% # Request fanout histogram
system.membus.snoop_fanout::1                     438      0.28%    100.00% # Request fanout histogram
system.membus.snoop_fanout::2                       0      0.00%    100.00% # Request fanout histogram
system.membus.snoop_fanout::3                       0      0.00%    100.00% # Request fanout histogram
system.membus.snoop_fanout::overflows               0      0.00%    100.00% # Request fanout histogram
system.membus.snoop_fanout::min_value               0                       # Request fanout histogram
system.membus.snoop_fanout::max_value               1                       # Request fanout histogram
system.membus.snoop_fanout::total              158715                       # Request fanout histogram
system.membus.reqLayer0.occupancy              344000                       # Layer occupancy (ticks)
system.membus.reqLayer0.utilization               0.0                       # Layer utilization (%)
system.membus.reqLayer1.occupancy           828657037                       # Layer occupancy (ticks)
system.membus.reqLayer1.utilization               6.9                       # Layer utilization (%)
system.membus.reqLayer2.occupancy                2500                       # Layer occupancy (ticks)
system.membus.reqLayer2.utilization               0.0                       # Layer utilization (%)
system.membus.respLayer1.occupancy              17997                       # Layer occupancy (ticks)
system.membus.respLayer1.utilization              0.0                       # Layer utilization (%)
system.membus.respLayer3.occupancy          376361750                       # Layer occupancy (ticks)
system.membus.respLayer3.utilization              3.1                       # Layer utilization (%)
system.membus.badaddr_responder.pwrStateResidencyTicks::UNDEFINED 2542011272500                       # Cumulative time (in ticks) in various power states
system.membus.respLayer2.occupancy          468326000                       # Layer occupancy (ticks)
system.membus.respLayer2.utilization              3.9                       # Layer utilization (%)
system.clk_domain.clock                          1000                       # Clock period in ticks
system.tsunami.fake_uart1.pwrStateResidencyTicks::UNDEFINED 2542011272500                       # Cumulative time (in ticks) in various power states
system.tsunami.fake_uart2.pwrStateResidencyTicks::UNDEFINED 2542011272500                       # Cumulative time (in ticks) in various power states
system.tsunami.fake_uart3.pwrStateResidencyTicks::UNDEFINED 2542011272500                       # Cumulative time (in ticks) in various power states
system.tsunami.fake_uart4.pwrStateResidencyTicks::UNDEFINED 2542011272500                       # Cumulative time (in ticks) in various power states
system.tsunami.fake_ppc.pwrStateResidencyTicks::UNDEFINED 2542011272500                       # Cumulative time (in ticks) in various power states
system.tsunami.cchip.pwrStateResidencyTicks::UNDEFINED 2542011272500                       # Cumulative time (in ticks) in various power states
system.tsunami.io.pwrStateResidencyTicks::UNDEFINED 2542011272500                       # Cumulative time (in ticks) in various power states
system.tsunami.pchip.pwrStateResidencyTicks::UNDEFINED 2542011272500                       # Cumulative time (in ticks) in various power states
system.tsunami.fake_ata1.pwrStateResidencyTicks::UNDEFINED 2542011272500                       # Cumulative time (in ticks) in various power states
system.tsunami.fake_ata0.pwrStateResidencyTicks::UNDEFINED 2542011272500                       # Cumulative time (in ticks) in various power states
system.tsunami.backdoor.pwrStateResidencyTicks::UNDEFINED 2542011272500                       # Cumulative time (in ticks) in various power states
system.tsunami.fake_pnp_read3.pwrStateResidencyTicks::UNDEFINED 2542011272500                       # Cumulative time (in ticks) in various power states
system.tsunami.fake_pnp_read2.pwrStateResidencyTicks::UNDEFINED 2542011272500                       # Cumulative time (in ticks) in various power states
system.tsunami.fake_pnp_read1.pwrStateResidencyTicks::UNDEFINED 2542011272500                       # Cumulative time (in ticks) in various power states
system.tsunami.fake_pnp_read0.pwrStateResidencyTicks::UNDEFINED 2542011272500                       # Cumulative time (in ticks) in various power states
system.tsunami.fake_pnp_read7.pwrStateResidencyTicks::UNDEFINED 2542011272500                       # Cumulative time (in ticks) in various power states
system.tsunami.fake_pnp_read6.pwrStateResidencyTicks::UNDEFINED 2542011272500                       # Cumulative time (in ticks) in various power states
system.tsunami.fake_pnp_read5.pwrStateResidencyTicks::UNDEFINED 2542011272500                       # Cumulative time (in ticks) in various power states
system.tsunami.fake_pnp_read4.pwrStateResidencyTicks::UNDEFINED 2542011272500                       # Cumulative time (in ticks) in various power states
system.tsunami.fake_pnp_write.pwrStateResidencyTicks::UNDEFINED 2542011272500                       # Cumulative time (in ticks) in various power states
system.tsunami.fb.pwrStateResidencyTicks::UNDEFINED 2542011272500                       # Cumulative time (in ticks) in various power states
system.tsunami.fake_pnp_addr.pwrStateResidencyTicks::UNDEFINED 2542011272500                       # Cumulative time (in ticks) in various power states
system.tsunami.fake_OROM.pwrStateResidencyTicks::UNDEFINED 2542011272500                       # Cumulative time (in ticks) in various power states
system.tsunami.uart.pwrStateResidencyTicks::UNDEFINED 2542011272500                       # Cumulative time (in ticks) in various power states
system.tsunami.fake_sm_chip.pwrStateResidencyTicks::UNDEFINED 2542011272500                       # Cumulative time (in ticks) in various power states
system.tsunami.ethernet.pwrStateResidencyTicks::UNDEFINED 2542011272500                       # Cumulative time (in ticks) in various power states
system.tsunami.ide.pwrStateResidencyTicks::UNDEFINED 2542011272500                       # Cumulative time (in ticks) in various power states
system.cpu_voltage_domain.voltage                   1                       # Voltage in Volts
system.mem_ctrls.pwrStateResidencyTicks::UNDEFINED 2542011272500                       # Cumulative time (in ticks) in various power states
system.mem_ctrls.bytes_read::.cpu.inst        5649472                       # Number of bytes read from this memory
system.mem_ctrls.bytes_read::.cpu.data        4477376                       # Number of bytes read from this memory
system.mem_ctrls.bytes_read::total           10126848                       # Number of bytes read from this memory
system.mem_ctrls.bytes_inst_read::.cpu.inst      5649472                       # Number of instructions bytes read from this memory
system.mem_ctrls.bytes_inst_read::total       5649472                       # Number of instructions bytes read from this memory
system.mem_ctrls.bytes_written::.writebacks      2234816                       # Number of bytes written to this memory
system.mem_ctrls.bytes_written::total         2234816                       # Number of bytes written to this memory
system.mem_ctrls.num_reads::.cpu.inst           88273                       # Number of read requests responded to by this memory
system.mem_ctrls.num_reads::.cpu.data           69959                       # Number of read requests responded to by this memory
system.mem_ctrls.num_reads::total              158232                       # Number of read requests responded to by this memory
system.mem_ctrls.num_writes::.writebacks        34919                       # Number of write requests responded to by this memory
system.mem_ctrls.num_writes::total              34919                       # Number of write requests responded to by this memory
system.mem_ctrls.bw_read::.cpu.inst         470733336                       # Total read bandwidth from this memory (bytes/s)
system.mem_ctrls.bw_read::.cpu.data         373070287                       # Total read bandwidth from this memory (bytes/s)
system.mem_ctrls.bw_read::total             843803623                       # Total read bandwidth from this memory (bytes/s)
system.mem_ctrls.bw_inst_read::.cpu.inst    470733336                       # Instruction read bandwidth from this memory (bytes/s)
system.mem_ctrls.bw_inst_read::total        470733336                       # Instruction read bandwidth from this memory (bytes/s)
system.mem_ctrls.bw_write::.writebacks      186212515                       # Write bandwidth from this memory (bytes/s)
system.mem_ctrls.bw_write::total            186212515                       # Write bandwidth from this memory (bytes/s)
system.mem_ctrls.bw_total::.writebacks      186212515                       # Total bandwidth to/from this memory (bytes/s)
system.mem_ctrls.bw_total::.cpu.inst        470733336                       # Total bandwidth to/from this memory (bytes/s)
system.mem_ctrls.bw_total::.cpu.data        373070287                       # Total bandwidth to/from this memory (bytes/s)
system.mem_ctrls.bw_total::total           1030016138                       # Total bandwidth to/from this memory (bytes/s)
system.mem_ctrls.avgPriority_.writebacks::samples    120263.00                       # Average QoS priority value for accepted requests
system.mem_ctrls.avgPriority_.cpu.inst::samples     78216.00                       # Average QoS priority value for accepted requests
system.mem_ctrls.avgPriority_.cpu.data::samples     69427.00                       # Average QoS priority value for accepted requests
system.mem_ctrls.priorityMinLatency      0.000000018750                       # per QoS priority minimum request to response latency (s)
system.mem_ctrls.priorityMaxLatency      0.000159786750                       # per QoS priority maximum request to response latency (s)
system.mem_ctrls.numReadWriteTurnArounds         7399                       # Number of turnarounds from READ to WRITE
system.mem_ctrls.numWriteReadTurnArounds         7399                       # Number of turnarounds from WRITE to READ
system.mem_ctrls.numStayReadState              409934                       # Number of times bus staying in READ state
system.mem_ctrls.numStayWriteState             112932                       # Number of times bus staying in WRITE state
system.mem_ctrls.readReqs                      158232                       # Number of read requests accepted
system.mem_ctrls.writeReqs                     122446                       # Number of write requests accepted
system.mem_ctrls.readBursts                    158232                       # Number of DRAM read bursts, including those serviced by the write queue
system.mem_ctrls.writeBursts                   122446                       # Number of DRAM write bursts, including those merged in the write queue
system.mem_ctrls.servicedByWrQ                  10589                       # Number of DRAM read bursts serviced by the write queue
system.mem_ctrls.mergedWrBursts                  2183                       # Number of DRAM write bursts merged with an existing one
system.mem_ctrls.neitherReadNorWriteReqs            0                       # Number of requests that are neither read nor write
system.mem_ctrls.perBankRdBursts::0              8882                       # Per bank write bursts
system.mem_ctrls.perBankRdBursts::1              6734                       # Per bank write bursts
system.mem_ctrls.perBankRdBursts::2             10146                       # Per bank write bursts
system.mem_ctrls.perBankRdBursts::3              7091                       # Per bank write bursts
system.mem_ctrls.perBankRdBursts::4              8690                       # Per bank write bursts
system.mem_ctrls.perBankRdBursts::5             10080                       # Per bank write bursts
system.mem_ctrls.perBankRdBursts::6              8660                       # Per bank write bursts
system.mem_ctrls.perBankRdBursts::7              8751                       # Per bank write bursts
system.mem_ctrls.perBankRdBursts::8             11860                       # Per bank write bursts
system.mem_ctrls.perBankRdBursts::9              9277                       # Per bank write bursts
system.mem_ctrls.perBankRdBursts::10            10643                       # Per bank write bursts
system.mem_ctrls.perBankRdBursts::11            12027                       # Per bank write bursts
system.mem_ctrls.perBankRdBursts::12             8868                       # Per bank write bursts
system.mem_ctrls.perBankRdBursts::13            13545                       # Per bank write bursts
system.mem_ctrls.perBankRdBursts::14             5553                       # Per bank write bursts
system.mem_ctrls.perBankRdBursts::15             6836                       # Per bank write bursts
system.mem_ctrls.perBankWrBursts::0              7262                       # Per bank write bursts
system.mem_ctrls.perBankWrBursts::1              4540                       # Per bank write bursts
system.mem_ctrls.perBankWrBursts::2              8870                       # Per bank write bursts
system.mem_ctrls.perBankWrBursts::3              7952                       # Per bank write bursts
system.mem_ctrls.perBankWrBursts::4              7884                       # Per bank write bursts
system.mem_ctrls.perBankWrBursts::5              9892                       # Per bank write bursts
system.mem_ctrls.perBankWrBursts::6              7525                       # Per bank write bursts
system.mem_ctrls.perBankWrBursts::7              6960                       # Per bank write bursts
system.mem_ctrls.perBankWrBursts::8             10632                       # Per bank write bursts
system.mem_ctrls.perBankWrBursts::9              8451                       # Per bank write bursts
system.mem_ctrls.perBankWrBursts::10             7928                       # Per bank write bursts
system.mem_ctrls.perBankWrBursts::11             8053                       # Per bank write bursts
system.mem_ctrls.perBankWrBursts::12             5454                       # Per bank write bursts
system.mem_ctrls.perBankWrBursts::13             9949                       # Per bank write bursts
system.mem_ctrls.perBankWrBursts::14             3184                       # Per bank write bursts
system.mem_ctrls.perBankWrBursts::15             5709                       # Per bank write bursts
system.mem_ctrls.avgRdQLen                       1.09                       # Average read queue length when enqueuing
system.mem_ctrls.avgWrQLen                      25.71                       # Average write queue length when enqueuing
system.mem_ctrls.totQLat                   2029533250                       # Total ticks spent queuing
system.mem_ctrls.totBusLat                  738215000                       # Total ticks spent in databus transfers
system.mem_ctrls.totMemAccLat              4797839500                       # Total ticks spent from burst creation until serviced by the DRAM
system.mem_ctrls.avgQLat                     13746.22                       # Average queueing delay per DRAM burst
system.mem_ctrls.avgBusLat                    5000.00                       # Average bus latency per DRAM burst
system.mem_ctrls.avgMemAccLat                32496.22                       # Average memory access latency per DRAM burst
system.mem_ctrls.numRdRetry                         0                       # Number of times read queue was full causing retry
system.mem_ctrls.numWrRetry                         0                       # Number of times write queue was full causing retry
system.mem_ctrls.readRowHits                   104465                       # Number of row buffer hits during reads
system.mem_ctrls.writeRowHits                   81048                       # Number of row buffer hits during writes
system.mem_ctrls.readRowHitRate                 70.76                       # Row buffer hit rate for reads
system.mem_ctrls.writeRowHitRate                67.39                       # Row buffer hit rate for writes
system.mem_ctrls.readPktSize::0                     0                       # Read request sizes (log2)
system.mem_ctrls.readPktSize::1                     0                       # Read request sizes (log2)
system.mem_ctrls.readPktSize::2                     0                       # Read request sizes (log2)
system.mem_ctrls.readPktSize::3                     0                       # Read request sizes (log2)
system.mem_ctrls.readPktSize::4                     0                       # Read request sizes (log2)
system.mem_ctrls.readPktSize::5                     0                       # Read request sizes (log2)
system.mem_ctrls.readPktSize::6                158232                       # Read request sizes (log2)
system.mem_ctrls.writePktSize::0                    0                       # Write request sizes (log2)
system.mem_ctrls.writePktSize::1                    0                       # Write request sizes (log2)
system.mem_ctrls.writePktSize::2                    0                       # Write request sizes (log2)
system.mem_ctrls.writePktSize::3                    0                       # Write request sizes (log2)
system.mem_ctrls.writePktSize::4                    0                       # Write request sizes (log2)
system.mem_ctrls.writePktSize::5                    0                       # Write request sizes (log2)
system.mem_ctrls.writePktSize::6               122446                       # Write request sizes (log2)
system.mem_ctrls.rdQLenPdf::0                  134961                       # What read queue length does an incoming req see
system.mem_ctrls.rdQLenPdf::1                   12363                       # What read queue length does an incoming req see
system.mem_ctrls.rdQLenPdf::2                     319                       # What read queue length does an incoming req see
system.mem_ctrls.rdQLenPdf::3                       0                       # What read queue length does an incoming req see
system.mem_ctrls.rdQLenPdf::4                       0                       # What read queue length does an incoming req see
system.mem_ctrls.rdQLenPdf::5                       0                       # What read queue length does an incoming req see
system.mem_ctrls.rdQLenPdf::6                       0                       # What read queue length does an incoming req see
system.mem_ctrls.rdQLenPdf::7                       0                       # What read queue length does an incoming req see
system.mem_ctrls.rdQLenPdf::8                       0                       # What read queue length does an incoming req see
system.mem_ctrls.rdQLenPdf::9                       0                       # What read queue length does an incoming req see
system.mem_ctrls.rdQLenPdf::10                      0                       # What read queue length does an incoming req see
system.mem_ctrls.rdQLenPdf::11                      0                       # What read queue length does an incoming req see
system.mem_ctrls.rdQLenPdf::12                      0                       # What read queue length does an incoming req see
system.mem_ctrls.rdQLenPdf::13                      0                       # What read queue length does an incoming req see
system.mem_ctrls.rdQLenPdf::14                      0                       # What read queue length does an incoming req see
system.mem_ctrls.rdQLenPdf::15                      0                       # What read queue length does an incoming req see
system.mem_ctrls.rdQLenPdf::16                      0                       # What read queue length does an incoming req see
system.mem_ctrls.rdQLenPdf::17                      0                       # What read queue length does an incoming req see
system.mem_ctrls.rdQLenPdf::18                      0                       # What read queue length does an incoming req see
system.mem_ctrls.rdQLenPdf::19                      0                       # What read queue length does an incoming req see
system.mem_ctrls.rdQLenPdf::20                      0                       # What read queue length does an incoming req see
system.mem_ctrls.rdQLenPdf::21                      0                       # What read queue length does an incoming req see
system.mem_ctrls.rdQLenPdf::22                      0                       # What read queue length does an incoming req see
system.mem_ctrls.rdQLenPdf::23                      0                       # What read queue length does an incoming req see
system.mem_ctrls.rdQLenPdf::24                      0                       # What read queue length does an incoming req see
system.mem_ctrls.rdQLenPdf::25                      0                       # What read queue length does an incoming req see
system.mem_ctrls.rdQLenPdf::26                      0                       # What read queue length does an incoming req see
system.mem_ctrls.rdQLenPdf::27                      0                       # What read queue length does an incoming req see
system.mem_ctrls.rdQLenPdf::28                      0                       # What read queue length does an incoming req see
system.mem_ctrls.rdQLenPdf::29                      0                       # What read queue length does an incoming req see
system.mem_ctrls.rdQLenPdf::30                      0                       # What read queue length does an incoming req see
system.mem_ctrls.rdQLenPdf::31                      0                       # What read queue length does an incoming req see
system.mem_ctrls.wrQLenPdf::0                       1                       # What write queue length does an incoming req see
system.mem_ctrls.wrQLenPdf::1                       1                       # What write queue length does an incoming req see
system.mem_ctrls.wrQLenPdf::2                       1                       # What write queue length does an incoming req see
system.mem_ctrls.wrQLenPdf::3                       1                       # What write queue length does an incoming req see
system.mem_ctrls.wrQLenPdf::4                       1                       # What write queue length does an incoming req see
system.mem_ctrls.wrQLenPdf::5                       1                       # What write queue length does an incoming req see
system.mem_ctrls.wrQLenPdf::6                       1                       # What write queue length does an incoming req see
system.mem_ctrls.wrQLenPdf::7                       1                       # What write queue length does an incoming req see
system.mem_ctrls.wrQLenPdf::8                       1                       # What write queue length does an incoming req see
system.mem_ctrls.wrQLenPdf::9                       1                       # What write queue length does an incoming req see
system.mem_ctrls.wrQLenPdf::10                      1                       # What write queue length does an incoming req see
system.mem_ctrls.wrQLenPdf::11                      1                       # What write queue length does an incoming req see
system.mem_ctrls.wrQLenPdf::12                      1                       # What write queue length does an incoming req see
system.mem_ctrls.wrQLenPdf::13                      1                       # What write queue length does an incoming req see
system.mem_ctrls.wrQLenPdf::14                      1                       # What write queue length does an incoming req see
system.mem_ctrls.wrQLenPdf::15                    688                       # What write queue length does an incoming req see
system.mem_ctrls.wrQLenPdf::16                    771                       # What write queue length does an incoming req see
system.mem_ctrls.wrQLenPdf::17                   6824                       # What write queue length does an incoming req see
system.mem_ctrls.wrQLenPdf::18                   7427                       # What write queue length does an incoming req see
system.mem_ctrls.wrQLenPdf::19                   7504                       # What write queue length does an incoming req see
system.mem_ctrls.wrQLenPdf::20                   7485                       # What write queue length does an incoming req see
system.mem_ctrls.wrQLenPdf::21                   7467                       # What write queue length does an incoming req see
system.mem_ctrls.wrQLenPdf::22                   7589                       # What write queue length does an incoming req see
system.mem_ctrls.wrQLenPdf::23                   7470                       # What write queue length does an incoming req see
system.mem_ctrls.wrQLenPdf::24                   7482                       # What write queue length does an incoming req see
system.mem_ctrls.wrQLenPdf::25                   7464                       # What write queue length does an incoming req see
system.mem_ctrls.wrQLenPdf::26                   7496                       # What write queue length does an incoming req see
system.mem_ctrls.wrQLenPdf::27                   7461                       # What write queue length does an incoming req see
system.mem_ctrls.wrQLenPdf::28                   7438                       # What write queue length does an incoming req see
system.mem_ctrls.wrQLenPdf::29                   7440                       # What write queue length does an incoming req see
system.mem_ctrls.wrQLenPdf::30                   7409                       # What write queue length does an incoming req see
system.mem_ctrls.wrQLenPdf::31                   7400                       # What write queue length does an incoming req see
system.mem_ctrls.wrQLenPdf::32                   7403                       # What write queue length does an incoming req see
system.mem_ctrls.wrQLenPdf::33                     15                       # What write queue length does an incoming req see
system.mem_ctrls.wrQLenPdf::34                      6                       # What write queue length does an incoming req see
system.mem_ctrls.wrQLenPdf::35                      7                       # What write queue length does an incoming req see
system.mem_ctrls.wrQLenPdf::36                      2                       # What write queue length does an incoming req see
system.mem_ctrls.wrQLenPdf::37                      0                       # What write queue length does an incoming req see
system.mem_ctrls.wrQLenPdf::38                      0                       # What write queue length does an incoming req see
system.mem_ctrls.wrQLenPdf::39                      0                       # What write queue length does an incoming req see
system.mem_ctrls.wrQLenPdf::40                      0                       # What write queue length does an incoming req see
system.mem_ctrls.wrQLenPdf::41                      0                       # What write queue length does an incoming req see
system.mem_ctrls.wrQLenPdf::42                      0                       # What write queue length does an incoming req see
system.mem_ctrls.wrQLenPdf::43                      0                       # What write queue length does an incoming req see
system.mem_ctrls.wrQLenPdf::44                      0                       # What write queue length does an incoming req see
system.mem_ctrls.wrQLenPdf::45                      0                       # What write queue length does an incoming req see
system.mem_ctrls.wrQLenPdf::46                      0                       # What write queue length does an incoming req see
system.mem_ctrls.wrQLenPdf::47                      0                       # What write queue length does an incoming req see
system.mem_ctrls.wrQLenPdf::48                      0                       # What write queue length does an incoming req see
system.mem_ctrls.wrQLenPdf::49                      0                       # What write queue length does an incoming req see
system.mem_ctrls.wrQLenPdf::50                      0                       # What write queue length does an incoming req see
system.mem_ctrls.wrQLenPdf::51                      0                       # What write queue length does an incoming req see
system.mem_ctrls.wrQLenPdf::52                      0                       # What write queue length does an incoming req see
system.mem_ctrls.wrQLenPdf::53                      0                       # What write queue length does an incoming req see
system.mem_ctrls.wrQLenPdf::54                      0                       # What write queue length does an incoming req see
system.mem_ctrls.wrQLenPdf::55                      0                       # What write queue length does an incoming req see
system.mem_ctrls.wrQLenPdf::56                      0                       # What write queue length does an incoming req see
system.mem_ctrls.wrQLenPdf::57                      0                       # What write queue length does an incoming req see
system.mem_ctrls.wrQLenPdf::58                      0                       # What write queue length does an incoming req see
system.mem_ctrls.wrQLenPdf::59                      0                       # What write queue length does an incoming req see
system.mem_ctrls.wrQLenPdf::60                      0                       # What write queue length does an incoming req see
system.mem_ctrls.wrQLenPdf::61                      0                       # What write queue length does an incoming req see
system.mem_ctrls.wrQLenPdf::62                      0                       # What write queue length does an incoming req see
system.mem_ctrls.wrQLenPdf::63                      0                       # What write queue length does an incoming req see
system.mem_ctrls.bytesPerActivate::samples        82367                       # Bytes accessed per row activation
system.mem_ctrls.bytesPerActivate::mean    208.137725                       # Bytes accessed per row activation
system.mem_ctrls.bytesPerActivate::gmean   139.953232                       # Bytes accessed per row activation
system.mem_ctrls.bytesPerActivate::stdev   224.569448                       # Bytes accessed per row activation
system.mem_ctrls.bytesPerActivate::0-127        35009     42.50%     42.50% # Bytes accessed per row activation
system.mem_ctrls.bytesPerActivate::128-255        24423     29.65%     72.16% # Bytes accessed per row activation
system.mem_ctrls.bytesPerActivate::256-383         9965     12.10%     84.25% # Bytes accessed per row activation
system.mem_ctrls.bytesPerActivate::384-511         4710      5.72%     89.97% # Bytes accessed per row activation
system.mem_ctrls.bytesPerActivate::512-639         2529      3.07%     93.04% # Bytes accessed per row activation
system.mem_ctrls.bytesPerActivate::640-767         1464      1.78%     94.82% # Bytes accessed per row activation
system.mem_ctrls.bytesPerActivate::768-895          884      1.07%     95.89% # Bytes accessed per row activation
system.mem_ctrls.bytesPerActivate::896-1023          589      0.72%     96.61% # Bytes accessed per row activation
system.mem_ctrls.bytesPerActivate::1024-1151         2794      3.39%    100.00% # Bytes accessed per row activation
system.mem_ctrls.bytesPerActivate::total        82367                       # Bytes accessed per row activation
system.mem_ctrls.rdPerTurnAround::samples         7399                       # Reads before turning the bus around for writes
system.mem_ctrls.rdPerTurnAround::mean      19.954318                       # Reads before turning the bus around for writes
system.mem_ctrls.rdPerTurnAround::gmean     18.351210                       # Reads before turning the bus around for writes
system.mem_ctrls.rdPerTurnAround::stdev     12.674127                       # Reads before turning the bus around for writes
system.mem_ctrls.rdPerTurnAround::0-15           1343     18.15%     18.15% # Reads before turning the bus around for writes
system.mem_ctrls.rdPerTurnAround::16-31          5570     75.28%     93.43% # Reads before turning the bus around for writes
system.mem_ctrls.rdPerTurnAround::32-47           295      3.99%     97.42% # Reads before turning the bus around for writes
system.mem_ctrls.rdPerTurnAround::48-63            91      1.23%     98.65% # Reads before turning the bus around for writes
system.mem_ctrls.rdPerTurnAround::64-79            41      0.55%     99.20% # Reads before turning the bus around for writes
system.mem_ctrls.rdPerTurnAround::80-95            21      0.28%     99.49% # Reads before turning the bus around for writes
system.mem_ctrls.rdPerTurnAround::96-111           11      0.15%     99.64% # Reads before turning the bus around for writes
system.mem_ctrls.rdPerTurnAround::112-127           11      0.15%     99.78% # Reads before turning the bus around for writes
system.mem_ctrls.rdPerTurnAround::128-143            8      0.11%     99.89% # Reads before turning the bus around for writes
system.mem_ctrls.rdPerTurnAround::144-159            4      0.05%     99.95% # Reads before turning the bus around for writes
system.mem_ctrls.rdPerTurnAround::176-191            1      0.01%     99.96% # Reads before turning the bus around for writes
system.mem_ctrls.rdPerTurnAround::208-223            1      0.01%     99.97% # Reads before turning the bus around for writes
system.mem_ctrls.rdPerTurnAround::256-271            1      0.01%     99.99% # Reads before turning the bus around for writes
system.mem_ctrls.rdPerTurnAround::400-415            1      0.01%    100.00% # Reads before turning the bus around for writes
system.mem_ctrls.rdPerTurnAround::total          7399                       # Reads before turning the bus around for writes
system.mem_ctrls.wrPerTurnAround::samples         7399                       # Writes before turning the bus around for reads
system.mem_ctrls.wrPerTurnAround::mean      16.251520                       # Writes before turning the bus around for reads
system.mem_ctrls.wrPerTurnAround::gmean     16.234987                       # Writes before turning the bus around for reads
system.mem_ctrls.wrPerTurnAround::stdev      0.767067                       # Writes before turning the bus around for reads
system.mem_ctrls.wrPerTurnAround::16             6598     89.17%     89.17% # Writes before turning the bus around for reads
system.mem_ctrls.wrPerTurnAround::17               81      1.09%     90.27% # Writes before turning the bus around for reads
system.mem_ctrls.wrPerTurnAround::18              455      6.15%     96.42% # Writes before turning the bus around for reads
system.mem_ctrls.wrPerTurnAround::19              195      2.64%     99.05% # Writes before turning the bus around for reads
system.mem_ctrls.wrPerTurnAround::20               65      0.88%     99.93% # Writes before turning the bus around for reads
system.mem_ctrls.wrPerTurnAround::21                5      0.07%    100.00% # Writes before turning the bus around for reads
system.mem_ctrls.wrPerTurnAround::total          7399                       # Writes before turning the bus around for reads
system.mem_ctrls.bytesReadDRAM                9449152                       # Total number of bytes read from DRAM
system.mem_ctrls.bytesReadWrQ                  677696                       # Total number of bytes read from write queue
system.mem_ctrls.bytesWritten                 7695680                       # Total number of bytes written to DRAM
system.mem_ctrls.bytesReadSys                10126848                       # Total read bytes from the system interface side
system.mem_ctrls.bytesWrittenSys              7836544                       # Total written bytes from the system interface side
system.mem_ctrls.avgRdBW                       787.34                       # Average DRAM read bandwidth in MiByte/s
system.mem_ctrls.avgWrBW                       641.23                       # Average achieved write bandwidth in MiByte/s
system.mem_ctrls.avgRdBWSys                    843.80                       # Average system read bandwidth in MiByte/s
system.mem_ctrls.avgWrBWSys                    652.97                       # Average system write bandwidth in MiByte/s
system.mem_ctrls.peakBW                      12800.00                       # Theoretical peak bandwidth in MiByte/s
system.mem_ctrls.busUtil                        11.16                       # Data bus utilization in percentage
system.mem_ctrls.busUtilRead                     6.15                       # Data bus utilization in percentage for reads
system.mem_ctrls.busUtilWrite                    5.01                       # Data bus utilization in percentage for writes
system.mem_ctrls.totGap                   12001422500                       # Total gap between requests
system.mem_ctrls.avgGap                      42758.69                       # Average gap between requests
system.mem_ctrls.masterReadBytes::.cpu.inst      5005824                       # Per-master bytes read from memory
system.mem_ctrls.masterReadBytes::.cpu.data      4443328                       # Per-master bytes read from memory
system.mem_ctrls.masterWriteBytes::.writebacks      7695680                       # Per-master bytes write to memory
system.mem_ctrls.masterReadRate::.cpu.inst 417102382.195784628391                       # Per-master bytes read from memory rate (Bytes/sec)
system.mem_ctrls.masterReadRate::.cpu.data 370233290.998091697693                       # Per-master bytes read from memory rate (Bytes/sec)
[...]
system.cpu.icache.tags.occ_blocks::.cpu.inst   511.999983                       # Average occupied blocks per requestor
system.cpu.icache.tags.occ_percent::.cpu.inst     1.000000                       # Average percentage of cache occupancy
system.cpu.icache.tags.occ_percent::total     1.000000                       # Average percentage of cache occupancy
system.cpu.icache.tags.occ_task_id_blocks::1024          512                       # Occupied blocks per task id
system.cpu.icache.tags.age_task_id_blocks_1024::0           46                       # Occupied blocks per task id
system.cpu.icache.tags.age_task_id_blocks_1024::1            7                       # Occupied blocks per task id
system.cpu.icache.tags.age_task_id_blocks_1024::2          207                       # Occupied blocks per task id
system.cpu.icache.tags.age_task_id_blocks_1024::3          246                       # Occupied blocks per task id
system.cpu.icache.tags.age_task_id_blocks_1024::4            6                       # Occupied blocks per task id
system.cpu.icache.tags.occ_task_id_percent::1024            1                       # Percentage of cache occupancy per task id
system.cpu.icache.tags.tag_accesses         439349080                       # Number of tag accesses
system.cpu.icache.tags.data_accesses        439349080                       # Number of data accesses
system.cpu.dcache.pwrStateResidencyTicks::UNDEFINED 689701236500                       # Cumulative time (in ticks) in various power states
system.cpu.dcache.demand_hits::.cpu.data    107085919                       # number of demand (read+write) hits
system.cpu.dcache.demand_hits::total        107085919                       # number of demand (read+write) hits
system.cpu.dcache.overall_hits::.cpu.data    107085919                       # number of overall hits
system.cpu.dcache.overall_hits::total       107085919                       # number of overall hits
system.cpu.dcache.demand_misses::.cpu.data      3266344                       # number of demand (read+write) misses
system.cpu.dcache.demand_misses::total        3266344                       # number of demand (read+write) misses
system.cpu.dcache.overall_misses::.cpu.data      3266344                       # number of overall misses
system.cpu.dcache.overall_misses::total       3266344                       # number of overall misses
system.cpu.dcache.demand_miss_latency::.cpu.data 214074908000                       # number of demand (read+write) miss cycles
system.cpu.dcache.demand_miss_latency::total 214074908000                       # number of demand (read+write) miss cycles
system.cpu.dcache.overall_miss_latency::.cpu.data 214074908000                       # number of overall miss cycles
system.cpu.dcache.overall_miss_latency::total 214074908000                       # number of overall miss cycles
system.cpu.dcache.demand_accesses::.cpu.data    110352263                       # number of demand (read+write) accesses
system.cpu.dcache.demand_accesses::total    110352263                       # number of demand (read+write) accesses
system.cpu.dcache.overall_accesses::.cpu.data    110352263                       # number of overall (read+write) accesses
system.cpu.dcache.overall_accesses::total    110352263                       # number of overall (read+write) accesses
system.cpu.dcache.demand_miss_rate::.cpu.data     0.029599                       # miss rate for demand accesses
system.cpu.dcache.demand_miss_rate::total     0.029599                       # miss rate for demand accesses
system.cpu.dcache.overall_miss_rate::.cpu.data     0.029599                       # miss rate for overall accesses
system.cpu.dcache.overall_miss_rate::total     0.029599                       # miss rate for overall accesses
system.cpu.dcache.demand_avg_miss_latency::.cpu.data 65539.608810                       # average overall miss latency
system.cpu.dcache.demand_avg_miss_latency::total 65539.608810                       # average overall miss latency
system.cpu.dcache.overall_avg_miss_latency::.cpu.data 65539.608810                       # average overall miss latency
system.cpu.dcache.overall_avg_miss_latency::total 65539.608810                       # average overall miss latency
system.cpu.dcache.blocked_cycles::no_mshrs            0                       # number of cycles access was blocked
system.cpu.dcache.blocked_cycles::no_targets            0                       # number of cycles access was blocked
system.cpu.dcache.blocked::no_mshrs                 0                       # number of cycles access was blocked
system.cpu.dcache.blocked::no_targets               0                       # number of cycles access was blocked
system.cpu.dcache.avg_blocked_cycles::no_mshrs          nan                       # average number of cycles each access was blocked
system.cpu.dcache.avg_blocked_cycles::no_targets          nan                       # average number of cycles each access was blocked
system.cpu.dcache.writebacks::.writebacks      1017475                       # number of writebacks
system.cpu.dcache.writebacks::total           1017475                       # number of writebacks
system.cpu.dcache.demand_mshr_hits::.cpu.data       396950                       # number of demand (read+write) MSHR hits
system.cpu.dcache.demand_mshr_hits::total       396950                       # number of demand (read+write) MSHR hits
system.cpu.dcache.overall_mshr_hits::.cpu.data       396950                       # number of overall MSHR hits
system.cpu.dcache.overall_mshr_hits::total       396950                       # number of overall MSHR hits
system.cpu.dcache.demand_mshr_misses::.cpu.data      2869394                       # number of demand (read+write) MSHR misses
system.cpu.dcache.demand_mshr_misses::total      2869394                       # number of demand (read+write) MSHR misses
system.cpu.dcache.overall_mshr_misses::.cpu.data      2869394                       # number of overall MSHR misses
system.cpu.dcache.overall_mshr_misses::total      2869394                       # number of overall MSHR misses
system.cpu.dcache.overall_mshr_uncacheable_misses::.cpu.data         2870                       # number of overall MSHR uncacheable misses
system.cpu.dcache.overall_mshr_uncacheable_misses::total         2870                       # number of overall MSHR uncacheable misses
system.cpu.dcache.demand_mshr_miss_latency::.cpu.data 186531643000                       # number of demand (read+write) MSHR miss cycles
system.cpu.dcache.demand_mshr_miss_latency::total 186531643000                       # number of demand (read+write) MSHR miss cycles
system.cpu.dcache.overall_mshr_miss_latency::.cpu.data 186531643000                       # number of overall MSHR miss cycles
system.cpu.dcache.overall_mshr_miss_latency::total 186531643000                       # number of overall MSHR miss cycles
system.cpu.dcache.overall_mshr_uncacheable_latency::.cpu.data    242884500                       # number of overall MSHR uncacheable cycles
system.cpu.dcache.overall_mshr_uncacheable_latency::total    242884500                       # number of overall MSHR uncacheable cycles
system.cpu.dcache.demand_mshr_miss_rate::.cpu.data     0.026002                       # mshr miss rate for demand accesses
system.cpu.dcache.demand_mshr_miss_rate::total     0.026002                       # mshr miss rate for demand accesses
system.cpu.dcache.overall_mshr_miss_rate::.cpu.data     0.026002                       # mshr miss rate for overall accesses
system.cpu.dcache.overall_mshr_miss_rate::total     0.026002                       # mshr miss rate for overall accesses
system.cpu.dcache.demand_avg_mshr_miss_latency::.cpu.data 65007.330119                       # average overall mshr miss latency
system.cpu.dcache.demand_avg_mshr_miss_latency::total 65007.330119                       # average overall mshr miss latency
system.cpu.dcache.overall_avg_mshr_miss_latency::.cpu.data 65007.330119                       # average overall mshr miss latency
system.cpu.dcache.overall_avg_mshr_miss_latency::total 65007.330119                       # average overall mshr miss latency
system.cpu.dcache.overall_avg_mshr_uncacheable_latency::.cpu.data 84628.745645                       # average overall mshr uncacheable latency
system.cpu.dcache.overall_avg_mshr_uncacheable_latency::total 84628.745645                       # average overall mshr uncacheable latency
system.cpu.dcache.replacements                2877770                       # number of replacements
system.cpu.dcache.ReadReq_hits::.cpu.data     71208110                       # number of ReadReq hits
system.cpu.dcache.ReadReq_hits::total        71208110                       # number of ReadReq hits
system.cpu.dcache.ReadReq_misses::.cpu.data      2384277                       # number of ReadReq misses
system.cpu.dcache.ReadReq_misses::total       2384277                       # number of ReadReq misses
system.cpu.dcache.ReadReq_miss_latency::.cpu.data 159685532500                       # number of ReadReq miss cycles
system.cpu.dcache.ReadReq_miss_latency::total 159685532500                       # number of ReadReq miss cycles
system.cpu.dcache.ReadReq_accesses::.cpu.data     73592387                       # number of ReadReq accesses(hits+misses)
system.cpu.dcache.ReadReq_accesses::total     73592387                       # number of ReadReq accesses(hits+misses)
system.cpu.dcache.ReadReq_miss_rate::.cpu.data     0.032398                       # miss rate for ReadReq accesses
system.cpu.dcache.ReadReq_miss_rate::total     0.032398                       # miss rate for ReadReq accesses
system.cpu.dcache.ReadReq_avg_miss_latency::.cpu.data 66974.404610                       # average ReadReq miss latency
system.cpu.dcache.ReadReq_avg_miss_latency::total 66974.404610                       # average ReadReq miss latency
system.cpu.dcache.ReadReq_mshr_hits::.cpu.data         6031                       # number of ReadReq MSHR hits
system.cpu.dcache.ReadReq_mshr_hits::total         6031                       # number of ReadReq MSHR hits
system.cpu.dcache.ReadReq_mshr_misses::.cpu.data      2378246                       # number of ReadReq MSHR misses
system.cpu.dcache.ReadReq_mshr_misses::total      2378246                       # number of ReadReq MSHR misses
system.cpu.dcache.ReadReq_mshr_uncacheable::.cpu.data         1215                       # number of ReadReq MSHR uncacheable
system.cpu.dcache.ReadReq_mshr_uncacheable::total         1215                       # number of ReadReq MSHR uncacheable
system.cpu.dcache.ReadReq_mshr_miss_latency::.cpu.data 156869769500                       # number of ReadReq MSHR miss cycles
system.cpu.dcache.ReadReq_mshr_miss_latency::total 156869769500                       # number of ReadReq MSHR miss cycles
system.cpu.dcache.ReadReq_mshr_uncacheable_latency::.cpu.data    242884500                       # number of ReadReq MSHR uncacheable cycles
system.cpu.dcache.ReadReq_mshr_uncacheable_latency::total    242884500                       # number of ReadReq MSHR uncacheable cycles
system.cpu.dcache.ReadReq_mshr_miss_rate::.cpu.data     0.032316                       # mshr miss rate for ReadReq accesses
system.cpu.dcache.ReadReq_mshr_miss_rate::total     0.032316                       # mshr miss rate for ReadReq accesses
system.cpu.dcache.ReadReq_avg_mshr_miss_latency::.cpu.data 65960.278920                       # average ReadReq mshr miss latency
system.cpu.dcache.ReadReq_avg_mshr_miss_latency::total 65960.278920                       # average ReadReq mshr miss latency
system.cpu.dcache.ReadReq_avg_mshr_uncacheable_latency::.cpu.data 199904.938272                       # average ReadReq mshr uncacheable latency
system.cpu.dcache.ReadReq_avg_mshr_uncacheable_latency::total 199904.938272                       # average ReadReq mshr uncacheable latency
system.cpu.dcache.WriteReq_hits::.cpu.data     35877809                       # number of WriteReq hits
system.cpu.dcache.WriteReq_hits::total       35877809                       # number of WriteReq hits
system.cpu.dcache.WriteReq_misses::.cpu.data       882067                       # number of WriteReq misses
system.cpu.dcache.WriteReq_misses::total       882067                       # number of WriteReq misses
system.cpu.dcache.WriteReq_miss_latency::.cpu.data  54389375500                       # number of WriteReq miss cycles
system.cpu.dcache.WriteReq_miss_latency::total  54389375500                       # number of WriteReq miss cycles
system.cpu.dcache.WriteReq_accesses::.cpu.data     36759876                       # number of WriteReq accesses(hits+misses)
system.cpu.dcache.WriteReq_accesses::total     36759876                       # number of WriteReq accesses(hits+misses)
system.cpu.dcache.WriteReq_miss_rate::.cpu.data     0.023995                       # miss rate for WriteReq accesses
system.cpu.dcache.WriteReq_miss_rate::total     0.023995                       # miss rate for WriteReq accesses
system.cpu.dcache.WriteReq_avg_miss_latency::.cpu.data 61661.274597                       # average WriteReq miss latency
system.cpu.dcache.WriteReq_avg_miss_latency::total 61661.274597                       # average WriteReq miss latency
system.cpu.dcache.WriteReq_mshr_hits::.cpu.data       390919                       # number of WriteReq MSHR hits
system.cpu.dcache.WriteReq_mshr_hits::total       390919                       # number of WriteReq MSHR hits
system.cpu.dcache.WriteReq_mshr_misses::.cpu.data       491148                       # number of WriteReq MSHR misses
system.cpu.dcache.WriteReq_mshr_misses::total       491148                       # number of WriteReq MSHR misses
system.cpu.dcache.WriteReq_mshr_uncacheable::.cpu.data         1655                       # number of WriteReq MSHR uncacheable
system.cpu.dcache.WriteReq_mshr_uncacheable::total         1655                       # number of WriteReq MSHR uncacheable
system.cpu.dcache.WriteReq_mshr_miss_latency::.cpu.data  29661873500                       # number of WriteReq MSHR miss cycles
system.cpu.dcache.WriteReq_mshr_miss_latency::total  29661873500                       # number of WriteReq MSHR miss cycles
system.cpu.dcache.WriteReq_mshr_miss_rate::.cpu.data     0.013361                       # mshr miss rate for WriteReq accesses
system.cpu.dcache.WriteReq_mshr_miss_rate::total     0.013361                       # mshr miss rate for WriteReq accesses
system.cpu.dcache.WriteReq_avg_mshr_miss_latency::.cpu.data 60392.943675                       # average WriteReq mshr miss latency
system.cpu.dcache.WriteReq_avg_mshr_miss_latency::total 60392.943675                       # average WriteReq mshr miss latency
system.cpu.dcache.LoadLockedReq_hits::.cpu.data      1645116                       # number of LoadLockedReq hits
system.cpu.dcache.LoadLockedReq_hits::total      1645116                       # number of LoadLockedReq hits
system.cpu.dcache.LoadLockedReq_misses::.cpu.data         8392                       # number of LoadLockedReq misses
system.cpu.dcache.LoadLockedReq_misses::total         8392                       # number of LoadLockedReq misses
system.cpu.dcache.LoadLockedReq_miss_latency::.cpu.data    630696500                       # number of LoadLockedReq miss cycles
system.cpu.dcache.LoadLockedReq_miss_latency::total    630696500                       # number of LoadLockedReq miss cycles
system.cpu.dcache.LoadLockedReq_accesses::.cpu.data      1653508                       # number of LoadLockedReq accesses(hits+misses)
system.cpu.dcache.LoadLockedReq_accesses::total      1653508                       # number of LoadLockedReq accesses(hits+misses)
system.cpu.dcache.LoadLockedReq_miss_rate::.cpu.data     0.005075                       # miss rate for LoadLockedReq accesses
system.cpu.dcache.LoadLockedReq_miss_rate::total     0.005075                       # miss rate for LoadLockedReq accesses
system.cpu.dcache.LoadLockedReq_avg_miss_latency::.cpu.data 75154.492374                       # average LoadLockedReq miss latency
system.cpu.dcache.LoadLockedReq_avg_miss_latency::total 75154.492374                       # average LoadLockedReq miss latency
system.cpu.dcache.LoadLockedReq_mshr_misses::.cpu.data         8392                       # number of LoadLockedReq MSHR misses
system.cpu.dcache.LoadLockedReq_mshr_misses::total         8392                       # number of LoadLockedReq MSHR misses
system.cpu.dcache.LoadLockedReq_mshr_miss_latency::.cpu.data    622304500                       # number of LoadLockedReq MSHR miss cycles
system.cpu.dcache.LoadLockedReq_mshr_miss_latency::total    622304500                       # number of LoadLockedReq MSHR miss cycles
system.cpu.dcache.LoadLockedReq_mshr_miss_rate::.cpu.data     0.005075                       # mshr miss rate for LoadLockedReq accesses
system.cpu.dcache.LoadLockedReq_mshr_miss_rate::total     0.005075                       # mshr miss rate for LoadLockedReq accesses
system.cpu.dcache.LoadLockedReq_avg_mshr_miss_latency::.cpu.data 74154.492374                       # average LoadLockedReq mshr miss latency
system.cpu.dcache.LoadLockedReq_avg_mshr_miss_latency::total 74154.492374                       # average LoadLockedReq mshr miss latency
system.cpu.dcache.StoreCondReq_hits::.cpu.data      1653209                       # number of StoreCondReq hits
system.cpu.dcache.StoreCondReq_hits::total      1653209                       # number of StoreCondReq hits
system.cpu.dcache.StoreCondReq_accesses::.cpu.data      1653209                       # number of StoreCondReq accesses(hits+misses)
system.cpu.dcache.StoreCondReq_accesses::total      1653209                       # number of StoreCondReq accesses(hits+misses)
system.cpu.dcache.tags.pwrStateResidencyTicks::UNDEFINED 689701236500                       # Cumulative time (in ticks) in various power states
system.cpu.dcache.tags.tagsinuse                 1024                       # Cycle average of tags in use
system.cpu.dcache.tags.total_refs           113285433                       # Total number of references to valid blocks.
system.cpu.dcache.tags.sampled_refs           2878794                       # Sample count of references to valid blocks.
system.cpu.dcache.tags.avg_refs             39.351698                       # Average number of references to valid blocks.
system.cpu.dcache.tags.warmup_cycle                 0                       # Cycle when the warmup percentage was hit.
system.cpu.dcache.tags.occ_blocks::.cpu.data         1024                       # Average occupied blocks per requestor
system.cpu.dcache.tags.occ_percent::.cpu.data            1                       # Average percentage of cache occupancy
system.cpu.dcache.tags.occ_percent::total            1                       # Average percentage of cache occupancy
system.cpu.dcache.tags.occ_task_id_blocks::1024         1024                       # Occupied blocks per task id
system.cpu.dcache.tags.age_task_id_blocks_1024::0           12                       # Occupied blocks per task id
system.cpu.dcache.tags.age_task_id_blocks_1024::1          296                       # Occupied blocks per task id
system.cpu.dcache.tags.age_task_id_blocks_1024::2          663                       # Occupied blocks per task id
system.cpu.dcache.tags.age_task_id_blocks_1024::3           53                       # Occupied blocks per task id
system.cpu.dcache.tags.occ_task_id_percent::1024            1                       # Percentage of cache occupancy per task id
system.cpu.dcache.tags.tag_accesses         230195730                       # Number of tag accesses
system.cpu.dcache.tags.data_accesses        230195730                       # Number of data accesses

---------- End Simulation Statistics   ----------
