
---------- Begin Simulation Statistics ----------
final_tick                               2541847748500                       # Number of ticks from beginning of simulation (restored from checkpoints and never reset)
host_inst_rate                                 214983                       # Simulator instruction rate (inst/s)
host_mem_usage                                 740740                       # Number of bytes of host memory used
host_op_rate                                   214982                       # Simulator op (including micro ops) rate (op/s)
host_seconds                                    19.51                       # Real time elapsed on the host
host_tick_rate                              606731149                       # Simulator tick rate (ticks/s)
sim_freq                                 1000000000000                       # Frequency of simulated ticks
sim_insts                                     4194493                       # Number of instructions simulated
sim_ops                                       4194493                       # Number of ops (including micro ops) simulated
sim_seconds                                  0.011838                       # Number of seconds simulated
sim_ticks                                 11837903500                       # Number of ticks simulated
system.cpu.branchPred.BTBCorrect                    0                       # Number of correct BTB predictions (this stat may not work properly.
system.cpu.branchPred.BTBHitPct             45.092353                       # BTB Hit Percentage
system.cpu.branchPred.BTBHits                  385017                       # Number of BTB hits
system.cpu.branchPred.BTBLookups               853841                       # Number of BTB lookups
system.cpu.branchPred.RASInCorrect               2403                       # Number of incorrect RAS predictions.
system.cpu.branchPred.condIncorrect             77856                       # Number of conditional branches incorrect
system.cpu.branchPred.condPredicted            804588                       # Number of conditional branches predicted
system.cpu.branchPred.indirectHits              52888                       # Number of indirect target hits.
system.cpu.branchPred.indirectLookups          278423                       # Number of indirect predictor lookups.
system.cpu.branchPred.indirectMisses           225535                       # Number of indirect misses.
system.cpu.branchPred.lookups                  977445                       # Number of BP lookups
system.cpu.branchPred.usedRAS                   64542                       # Number of times the RAS was used to get a target.
system.cpu.branchPredindirectMispredicted        26796                       # Number of mispredicted indirect branches.
system.cpu.committedInsts                     4194493                       # Number of instructions committed
system.cpu.committedOps                       4194493                       # Number of ops (including micro ops) committed
system.cpu.cpi                               5.641215                       # CPI: cycles per instruction
system.cpu.discardedOps                        189836                       # Number of ops (including micro ops) which were discarded before commit
system.cpu.dtb.data_accesses                   606432                       # DTB accesses
system.cpu.dtb.data_acv                           131                       # DTB access violations
system.cpu.dtb.data_hits                      1451091                       # DTB hits
system.cpu.dtb.data_misses                       7674                       # DTB misses
system.cpu.dtb.fetch_accesses                       0                       # ITB accesses
system.cpu.dtb.fetch_acv                            0                       # ITB acv
system.cpu.dtb.fetch_hits                           0                       # ITB hits
system.cpu.dtb.fetch_misses                         0                       # ITB misses
system.cpu.dtb.read_accesses                   405024                       # DTB read accesses
system.cpu.dtb.read_acv                            43                       # DTB read access violations
system.cpu.dtb.read_hits                       848646                       # DTB read hits
system.cpu.dtb.read_misses                       6826                       # DTB read misses
system.cpu.dtb.write_accesses                  201408                       # DTB write accesses
system.cpu.dtb.write_acv                           88                       # DTB write access violations
system.cpu.dtb.write_hits                      602445                       # DTB write hits
system.cpu.dtb.write_misses                       848                       # DTB write misses
system.cpu.fetch2.amo_instructions                  0                       # Number of memory atomic instructions successfully decoded
system.cpu.fetch2.fp_instructions               18037                       # Number of floating point instructions successfully decoded
system.cpu.fetch2.int_instructions            3378334                       # Number of integer instructions successfully decoded
system.cpu.fetch2.load_instructions           1029984                       # Number of memory load instructions successfully decoded
system.cpu.fetch2.store_instructions           661409                       # Number of memory store instructions successfully decoded
system.cpu.fetch2.vec_instructions                  0                       # Number of SIMD instructions successfully decoded
system.cpu.idleCycles                        16721640                       # Total number of cycles that the object has spent stopped
system.cpu.ipc                               0.177267                       # IPC: instructions per cycle
system.cpu.itb.data_accesses                        0                       # DTB accesses
system.cpu.itb.data_acv                             0                       # DTB access violations
system.cpu.itb.data_hits                            0                       # DTB hits
system.cpu.itb.data_misses                          0                       # DTB misses
system.cpu.itb.fetch_accesses                  967265                       # ITB accesses
system.cpu.itb.fetch_acv                          755                       # ITB acv
system.cpu.itb.fetch_hits                      960157                       # ITB hits
system.cpu.itb.fetch_misses                      7108                       # ITB misses
system.cpu.itb.read_accesses                        0                       # DTB read accesses
system.cpu.itb.read_acv                             0                       # DTB read access violations
system.cpu.itb.read_hits                            0                       # DTB read hits
system.cpu.itb.read_misses                          0                       # DTB read misses
system.cpu.itb.write_accesses                       0                       # DTB write accesses
system.cpu.itb.write_acv                            0                       # DTB write access violations
system.cpu.itb.write_hits                           0                       # DTB write hits
system.cpu.itb.write_misses                         0                       # DTB write misses
system.cpu.kern.callpal::swpctx                   574      9.45%      9.45% # number of callpals executed
system.cpu.kern.callpal::tbi                       25      0.41%      9.86% # number of callpals executed
system.cpu.kern.callpal::swpipl                  4213     69.34%     79.20% # number of callpals executed
system.cpu.kern.callpal::rdps                      48      0.79%     79.99% # number of callpals executed
system.cpu.kern.callpal::wrusp                      4      0.07%     80.05% # number of callpals executed
system.cpu.kern.callpal::rdusp                      3      0.05%     80.10% # number of callpals executed
system.cpu.kern.callpal::rti                      896     14.75%     94.85% # number of callpals executed
system.cpu.kern.callpal::callsys                  235      3.87%     98.72% # number of callpals executed
system.cpu.kern.callpal::imb                       78      1.28%    100.00% # number of callpals executed
system.cpu.kern.callpal::total                   6076                       # number of callpals executed
system.cpu.kern.inst.arm                            0                       # number of arm instructions executed
system.cpu.kern.inst.hwrei                      14419                       # number of hwrei instructions executed
system.cpu.kern.inst.quiesce                        9                       # number of quiesce instructions executed
system.cpu.kern.ipl_count::0                     2431     47.42%     47.42% # number of times we switched to this ipl
system.cpu.kern.ipl_count::21                       5      0.10%     47.52% # number of times we switched to this ipl
system.cpu.kern.ipl_count::22                      12      0.23%     47.76% # number of times we switched to this ipl
system.cpu.kern.ipl_count::31                    2678     52.24%    100.00% # number of times we switched to this ipl
system.cpu.kern.ipl_count::total                 5126                       # number of times we switched to this ipl
system.cpu.kern.ipl_good::0                      2418     49.82%     49.82% # number of times we switched to this ipl from a different ipl
system.cpu.kern.ipl_good::21                        5      0.10%     49.93% # number of times we switched to this ipl from a different ipl
system.cpu.kern.ipl_good::22                       12      0.25%     50.18% # number of times we switched to this ipl from a different ipl
system.cpu.kern.ipl_good::31                     2418     49.82%    100.00% # number of times we switched to this ipl from a different ipl
system.cpu.kern.ipl_good::total                  4853                       # number of times we switched to this ipl from a different ipl
system.cpu.kern.ipl_ticks::0              10930785500     92.30%     92.30% # number of cycles we spent at this ipl
system.cpu.kern.ipl_ticks::21                 9272000      0.08%     92.38% # number of cycles we spent at this ipl
system.cpu.kern.ipl_ticks::22                17814000      0.15%     92.53% # number of cycles we spent at this ipl
system.cpu.kern.ipl_ticks::31               884259500      7.47%    100.00% # number of cycles we spent at this ipl
system.cpu.kern.ipl_ticks::total          11842131000                       # number of cycles we spent at this ipl
system.cpu.kern.ipl_used::0                  0.994652                       # fraction of swpipl calls that actually changed the ipl
system.cpu.kern.ipl_used::21                        1                       # fraction of swpipl calls that actually changed the ipl
system.cpu.kern.ipl_used::22                        1                       # fraction of swpipl calls that actually changed the ipl
system.cpu.kern.ipl_used::31                 0.902913                       # fraction of swpipl calls that actually changed the ipl
system.cpu.kern.ipl_used::total              0.946742                       # fraction of swpipl calls that actually changed the ipl
system.cpu.kern.mode_good::kernel                 870                      
system.cpu.kern.mode_good::user                   870                      
system.cpu.kern.mode_good::idle                     0                      
system.cpu.kern.mode_switch::kernel              1470                       # number of protection mode switches
system.cpu.kern.mode_switch::user                 870                       # number of protection mode switches
system.cpu.kern.mode_switch::idle                   0                       # number of protection mode switches
system.cpu.kern.mode_switch_good::kernel     0.591837                       # fraction of useful protection mode switches
system.cpu.kern.mode_switch_good::user              1                       # fraction of useful protection mode switches
system.cpu.kern.mode_switch_good::idle            nan                       # fraction of useful protection mode switches
system.cpu.kern.mode_switch_good::total      0.743590                       # fraction of useful protection mode switches
system.cpu.kern.mode_ticks::kernel         8003872500     67.59%     67.59% # number of ticks spent at the given mode
system.cpu.kern.mode_ticks::user           3838258500     32.41%    100.00% # number of ticks spent at the given mode
system.cpu.kern.mode_ticks::idle                    0      0.00%    100.00% # number of ticks spent at the given mode
system.cpu.kern.swap_context                      574                       # number of times the context was actually changed
system.cpu.numCycles                         23662035                       # number of cpu cycles simulated
system.cpu.numFetchSuspends                         9                       # Number of times Execute suspended instruction fetching
system.cpu.numWorkItemsCompleted                    0                       # number of work items this cpu completed
system.cpu.numWorkItemsStarted                      0                       # number of work items this cpu started
system.cpu.op_class_0::No_OpClass               85396      2.04%      2.04% # Class of committed instruction
system.cpu.op_class_0::IntAlu                 2540590     60.57%     62.61% # Class of committed instruction
system.cpu.op_class_0::IntMult                   3673      0.09%     62.69% # Class of committed instruction
system.cpu.op_class_0::IntDiv                       0      0.00%     62.69% # Class of committed instruction
system.cpu.op_class_0::FloatAdd                  8286      0.20%     62.89% # Class of committed instruction
system.cpu.op_class_0::FloatCmp                     0      0.00%     62.89% # Class of committed instruction
system.cpu.op_class_0::FloatCvt                     0      0.00%     62.89% # Class of committed instruction
system.cpu.op_class_0::FloatMult                    0      0.00%     62.89% # Class of committed instruction
system.cpu.op_class_0::FloatMultAcc                 0      0.00%     62.89% # Class of committed instruction
system.cpu.op_class_0::FloatDiv                  1593      0.04%     62.93% # Class of committed instruction
system.cpu.op_class_0::FloatMisc                    0      0.00%     62.93% # Class of committed instruction
system.cpu.op_class_0::FloatSqrt                    0      0.00%     62.93% # Class of committed instruction
system.cpu.op_class_0::SimdAdd                      0      0.00%     62.93% # Class of committed instruction
system.cpu.op_class_0::SimdAddAcc                   0      0.00%     62.93% # Class of committed instruction
system.cpu.op_class_0::SimdAlu                      0      0.00%     62.93% # Class of committed instruction
system.cpu.op_class_0::SimdCmp                      0      0.00%     62.93% # Class of committed instruction
system.cpu.op_class_0::SimdCvt                      0      0.00%     62.93% # Class of committed instruction
system.cpu.op_class_0::SimdMisc                     0      0.00%     62.93% # Class of committed instruction
system.cpu.op_class_0::SimdMult                     0      0.00%     62.93% # Class of committed instruction
system.cpu.op_class_0::SimdMultAcc                  0      0.00%     62.93% # Class of committed instruction
system.cpu.op_class_0::SimdShift                    0      0.00%     62.93% # Class of committed instruction
system.cpu.op_class_0::SimdShiftAcc                 0      0.00%     62.93% # Class of committed instruction
system.cpu.op_class_0::SimdDiv                      0      0.00%     62.93% # Class of committed instruction
system.cpu.op_class_0::SimdSqrt                     0      0.00%     62.93% # Class of committed instruction
system.cpu.op_class_0::SimdFloatAdd                 0      0.00%     62.93% # Class of committed instruction
system.cpu.op_class_0::SimdFloatAlu                 0      0.00%     62.93% # Class of committed instruction
system.cpu.op_class_0::SimdFloatCmp                 0      0.00%     62.93% # Class of committed instruction
system.cpu.op_class_0::SimdFloatCvt                 0      0.00%     62.93% # Class of committed instruction
system.cpu.op_class_0::SimdFloatDiv                 0      0.00%     62.93% # Class of committed instruction
system.cpu.op_class_0::SimdFloatMisc                0      0.00%     62.93% # Class of committed instruction
system.cpu.op_class_0::SimdFloatMult                0      0.00%     62.93% # Class of committed instruction
system.cpu.op_class_0::SimdFloatMultAcc             0      0.00%     62.93% # Class of committed instruction
system.cpu.op_class_0::SimdFloatSqrt                0      0.00%     62.93% # Class of committed instruction
system.cpu.op_class_0::SimdReduceAdd                0      0.00%     62.93% # Class of committed instruction
system.cpu.op_class_0::SimdReduceAlu                0      0.00%     62.93% # Class of committed instruction
system.cpu.op_class_0::SimdReduceCmp                0      0.00%     62.93% # Class of committed instruction
system.cpu.op_class_0::SimdFloatReduceAdd            0      0.00%     62.93% # Class of committed instruction
system.cpu.op_class_0::SimdFloatReduceCmp            0      0.00%     62.93% # Class of committed instruction
system.cpu.op_class_0::SimdAes                      0      0.00%     62.93% # Class of committed instruction
system.cpu.op_class_0::SimdAesMix                   0      0.00%     62.93% # Class of committed instruction
system.cpu.op_class_0::SimdSha1Hash                 0      0.00%     62.93% # Class of committed instruction
system.cpu.op_class_0::SimdSha1Hash2                0      0.00%     62.93% # Class of committed instruction
system.cpu.op_class_0::SimdSha256Hash               0      0.00%     62.93% # Class of committed instruction
system.cpu.op_class_0::SimdSha256Hash2              0      0.00%     62.93% # Class of committed instruction
system.cpu.op_class_0::SimdShaSigma2                0      0.00%     62.93% # Class of committed instruction
system.cpu.op_class_0::SimdShaSigma3                0      0.00%     62.93% # Class of committed instruction
system.cpu.op_class_0::SimdPredAlu                  0      0.00%     62.93% # Class of committed instruction
system.cpu.op_class_0::MemRead                 838968     20.00%     82.93% # Class of committed instruction
system.cpu.op_class_0::MemWrite                592384     14.12%     97.05% # Class of committed instruction
system.cpu.op_class_0::FloatMemRead              9988      0.24%     97.29% # Class of committed instruction
system.cpu.op_class_0::FloatMemWrite             8788      0.21%     97.50% # Class of committed instruction
system.cpu.op_class_0::IprAccess               104827      2.50%    100.00% # Class of committed instruction
system.cpu.op_class_0::InstPrefetch                 0      0.00%    100.00% # Class of committed instruction
system.cpu.op_class_0::total                  4194493                       # Class of committed instruction
system.cpu.quiesceCycles                        13772                       # Total number of cycles that CPU has spent quiesced or waiting for an interrupt
system.cpu.tickCycles                         6940395                       # Number of cycles that the object actually ticked
system.disk0.dma_read_bytes                         0                       # Number of bytes transfered via DMA reads (not PRD).
system.disk0.dma_read_full_pages                    0                       # Number of full page size DMA reads (not PRD).
system.disk0.dma_read_txs                           0                       # Number of DMA read transactions (not PRD).
system.disk0.dma_write_bytes                    12288                       # Number of bytes transfered via DMA writes.
system.disk0.dma_write_full_pages                   0                       # Number of full page size DMA writes.
system.disk0.dma_write_txs                          3                       # Number of DMA write transactions.
system.disk2.dma_read_bytes                         0                       # Number of bytes transfered via DMA reads (not PRD).
system.disk2.dma_read_full_pages                    0                       # Number of full page size DMA reads (not PRD).
system.disk2.dma_read_txs                           0                       # Number of DMA read transactions (not PRD).
system.disk2.dma_write_bytes                        0                       # Number of bytes transfered via DMA writes.
system.disk2.dma_write_full_pages                   0                       # Number of full page size DMA writes.
system.disk2.dma_write_txs                          0                       # Number of DMA write transactions.
system.membus.snoop_filter.hit_multi_requests          438                       # Number of requests hitting in the snoop filter with multiple (>1) holders of the requested data.
system.membus.snoop_filter.hit_multi_snoops            0                       # Number of snoops hitting in the snoop filter with multiple (>1) holders of the requested data.
system.membus.snoop_filter.hit_single_requests       155612                       # Number of requests hitting in the snoop filter with a single holder of the requested data.
system.membus.snoop_filter.hit_single_snoops            0                       # Number of snoops hitting in the snoop filter with a single holder of the requested data.
system.membus.snoop_filter.tot_requests        312828                       # Total number of requests made to the snoop filter.
system.membus.snoop_filter.tot_snoops               0                       # Total number of snoops made to the snoop filter.
system.tsunami.ethernet.coalescedRxDesc           nan                       # average number of RxDesc's coalesced into each post
system.tsunami.ethernet.coalescedRxIdle           nan                       # average number of RxIdle's coalesced into each post
system.tsunami.ethernet.coalescedRxOk             nan                       # average number of RxOk's coalesced into each post
system.tsunami.ethernet.coalescedRxOrn            nan                       # average number of RxOrn's coalesced into each post
system.tsunami.ethernet.coalescedSwi              nan                       # average number of Swi's coalesced into each post
system.tsunami.ethernet.coalescedTotal            nan                       # average number of interrupts coalesced into each post
system.tsunami.ethernet.coalescedTxDesc           nan                       # average number of TxDesc's coalesced into each post
system.tsunami.ethernet.coalescedTxIdle           nan                       # average number of TxIdle's coalesced into each post
system.tsunami.ethernet.coalescedTxOk             nan                       # average number of TxOk's coalesced into each post
system.tsunami.ethernet.descDMAReads                0                       # Number of descriptors the device read w/ DMA
system.tsunami.ethernet.descDMAWrites               0                       # Number of descriptors the device wrote w/ DMA
system.tsunami.ethernet.descDmaReadBytes            0                       # number of descriptor bytes read w/ DMA
system.tsunami.ethernet.descDmaWriteBytes            0                       # number of descriptor bytes write w/ DMA
system.tsunami.ethernet.droppedPackets              0                       # number of packets dropped
system.tsunami.ethernet.postedInterrupts            0                       # number of posts to CPU
system.tsunami.ethernet.postedRxDesc                0                       # number of RxDesc interrupts posted to CPU
system.tsunami.ethernet.postedRxIdle                0                       # number of rxIdle interrupts posted to CPU
system.tsunami.ethernet.postedRxOk                  0                       # number of RxOk interrupts posted to CPU
system.tsunami.ethernet.postedRxOrn                 0                       # number of RxOrn posted to CPU
system.tsunami.ethernet.postedSwi                   0                       # number of software interrupts posted to CPU
system.tsunami.ethernet.postedTxDesc                0                       # number of TxDesc interrupts posted to CPU
system.tsunami.ethernet.postedTxIdle                0                       # number of TxIdle interrupts posted to CPU
system.tsunami.ethernet.postedTxOk                  0                       # number of TxOk interrupts posted to CPU
system.tsunami.ethernet.totalRxDesc                 0                       # total number of RxDesc written to ISR
system.tsunami.ethernet.totalRxIdle                 0                       # total number of RxIdle written to ISR
system.tsunami.ethernet.totalRxOk                   0                       # total number of RxOk written to ISR
system.tsunami.ethernet.totalRxOrn                  0                       # total number of RxOrn written to ISR
system.tsunami.ethernet.totalSwi                    0                       # total number of Swi written to ISR
system.tsunami.ethernet.totalTxDesc                 0                       # total number of TxDesc written to ISR
system.tsunami.ethernet.totalTxIdle                 0                       # total number of TxIdle written to ISR
system.tsunami.ethernet.totalTxOk                   0                       # total number of TxOk written to ISR
system.bridge.pwrStateResidencyTicks::UNDEFINED 2541847748500                       # Cumulative time (in ticks) in various power states
system.voltage_domain.voltage                       1                       # Voltage in Volts
system.iocache.pwrStateResidencyTicks::UNDEFINED 2541847748500                       # Cumulative time (in ticks) in various power states
system.iocache.demand_misses::.tsunami.ide          195                       # number of demand (read+write) misses
system.iocache.demand_misses::total               195                       # number of demand (read+write) misses
system.iocache.overall_misses::.tsunami.ide          195                       # number of overall misses
system.iocache.overall_misses::total              195                       # number of overall misses
system.iocache.demand_miss_latency::.tsunami.ide     22810450                       # number of demand (read+write) miss cycles
system.iocache.demand_miss_latency::total     22810450                       # number of demand (read+write) miss cycles
system.iocache.overall_miss_latency::.tsunami.ide     22810450                       # number of overall miss cycles
system.iocache.overall_miss_latency::total     22810450                       # number of overall miss cycles
system.iocache.demand_accesses::.tsunami.ide          195                       # number of demand (read+write) accesses
system.iocache.demand_accesses::total             195                       # number of demand (read+write) accesses
system.iocache.overall_accesses::.tsunami.ide          195                       # number of overall (read+write) accesses
system.iocache.overall_accesses::total            195                       # number of overall (read+write) accesses
system.iocache.demand_miss_rate::.tsunami.ide            1                       # miss rate for demand accesses
system.iocache.demand_miss_rate::total              1                       # miss rate for demand accesses
system.iocache.overall_miss_rate::.tsunami.ide            1                       # miss rate for overall accesses
system.iocache.overall_miss_rate::total             1                       # miss rate for overall accesses
system.iocache.demand_avg_miss_latency::.tsunami.ide 116976.666667                       # average overall miss latency
system.iocache.demand_avg_miss_latency::total 116976.666667                       # average overall miss latency
system.iocache.overall_avg_miss_latency::.tsunami.ide 116976.666667                       # average overall miss latency
system.iocache.overall_avg_miss_latency::total 116976.666667                       # average overall miss latency
system.iocache.blocked_cycles::no_mshrs             0                       # number of cycles access was blocked
system.iocache.blocked_cycles::no_targets            0                       # number of cycles access was blocked
system.iocache.blocked::no_mshrs                    0                       # number of cycles access was blocked
system.iocache.blocked::no_targets                  0                       # number of cycles access was blocked
system.iocache.avg_blocked_cycles::no_mshrs          nan                       # average number of cycles each access was blocked
system.iocache.avg_blocked_cycles::no_targets          nan                       # average number of cycles each access was blocked
system.iocache.writebacks::.writebacks            176                       # number of writebacks
system.iocache.writebacks::total                  176                       # number of writebacks
system.iocache.demand_mshr_misses::.tsunami.ide          195                       # number of demand (read+write) MSHR misses
system.iocache.demand_mshr_misses::total          195                       # number of demand (read+write) MSHR misses
system.iocache.overall_mshr_misses::.tsunami.ide          195                       # number of overall MSHR misses
system.iocache.overall_mshr_misses::total          195                       # number of overall MSHR misses
system.iocache.demand_mshr_miss_latency::.tsunami.ide     13046478                       # number of demand (read+write) MSHR miss cycles
system.iocache.demand_mshr_miss_latency::total     13046478                       # number of demand (read+write) MSHR miss cycles
system.iocache.overall_mshr_miss_latency::.tsunami.ide     13046478                       # number of overall MSHR miss cycles
system.iocache.overall_mshr_miss_latency::total     13046478                       # number of overall MSHR miss cycles
system.iocache.demand_mshr_miss_rate::.tsunami.ide            1                       # mshr miss rate for demand accesses
system.iocache.demand_mshr_miss_rate::total            1                       # mshr miss rate for demand accesses
system.iocache.overall_mshr_miss_rate::.tsunami.ide            1                       # mshr miss rate for overall accesses
system.iocache.overall_mshr_miss_rate::total            1                       # mshr miss rate for overall accesses
system.iocache.demand_avg_mshr_miss_latency::.tsunami.ide 66905.015385                       # average overall mshr miss latency
system.iocache.demand_avg_mshr_miss_latency::total 66905.015385                       # average overall mshr miss latency
system.iocache.overall_avg_mshr_miss_latency::.tsunami.ide 66905.015385                       # average overall mshr miss latency
system.iocache.overall_avg_mshr_miss_latency::total 66905.015385                       # average overall mshr miss latency
system.iocache.replacements                       179                       # number of replacements
system.iocache.ReadReq_misses::.tsunami.ide            3                       # number of ReadReq misses
system.iocache.ReadReq_misses::total                3                       # number of ReadReq misses
system.iocache.ReadReq_miss_latency::.tsunami.ide       349497                       # number of ReadReq miss cycles
system.iocache.ReadReq_miss_latency::total       349497                       # number of ReadReq miss cycles
system.iocache.ReadReq_accesses::.tsunami.ide            3                       # number of ReadReq accesses(hits+misses)
system.iocache.ReadReq_accesses::total              3                       # number of ReadReq accesses(hits+misses)
system.iocache.ReadReq_miss_rate::.tsunami.ide            1                       # miss rate for ReadReq accesses
system.iocache.ReadReq_miss_rate::total             1                       # miss rate for ReadReq accesses
system.iocache.ReadReq_avg_miss_latency::.tsunami.ide       116499                       # average ReadReq miss latency
system.iocache.ReadReq_avg_miss_latency::total       116499                       # average ReadReq miss latency
system.iocache.ReadReq_mshr_misses::.tsunami.ide            3                       # number of ReadReq MSHR misses
system.iocache.ReadReq_mshr_misses::total            3                       # number of ReadReq MSHR misses
system.iocache.ReadReq_mshr_miss_latency::.tsunami.ide       199497                       # number of ReadReq MSHR miss cycles
system.iocache.ReadReq_mshr_miss_latency::total       199497                       # number of ReadReq MSHR miss cycles
system.iocache.ReadReq_mshr_miss_rate::.tsunami.ide            1                       # mshr miss rate for ReadReq accesses
system.iocache.ReadReq_mshr_miss_rate::total            1                       # mshr miss rate for ReadReq accesses
system.iocache.ReadReq_avg_mshr_miss_latency::.tsunami.ide        66499                       # average ReadReq mshr miss latency
system.iocache.ReadReq_avg_mshr_miss_latency::total        66499                       # average ReadReq mshr miss latency
system.iocache.WriteLineReq_misses::.tsunami.ide          192                       # number of WriteLineReq misses
system.iocache.WriteLineReq_misses::total          192                       # number of WriteLineReq misses
system.iocache.WriteLineReq_miss_latency::.tsunami.ide     22460953                       # number of WriteLineReq miss cycles
system.iocache.WriteLineReq_miss_latency::total     22460953                       # number of WriteLineReq miss cycles
system.iocache.WriteLineReq_accesses::.tsunami.ide          192                       # number of WriteLineReq accesses(hits+misses)
system.iocache.WriteLineReq_accesses::total          192                       # number of WriteLineReq accesses(hits+misses)
system.iocache.WriteLineReq_miss_rate::.tsunami.ide            1                       # miss rate for WriteLineReq accesses
system.iocache.WriteLineReq_miss_rate::total            1                       # miss rate for WriteLineReq accesses
system.iocache.WriteLineReq_avg_miss_latency::.tsunami.ide 116984.130208                       # average WriteLineReq miss latency
system.iocache.WriteLineReq_avg_miss_latency::total 116984.130208                       # average WriteLineReq miss latency
system.iocache.WriteLineReq_mshr_misses::.tsunami.ide          192                       # number of WriteLineReq MSHR misses
system.iocache.WriteLineReq_mshr_misses::total          192                       # number of WriteLineReq MSHR misses
system.iocache.WriteLineReq_mshr_miss_latency::.tsunami.ide     12846981                       # number of WriteLineReq MSHR miss cycles
system.iocache.WriteLineReq_mshr_miss_latency::total     12846981                       # number of WriteLineReq MSHR miss cycles
system.iocache.WriteLineReq_mshr_miss_rate::.tsunami.ide            1                       # mshr miss rate for WriteLineReq accesses
system.iocache.WriteLineReq_mshr_miss_rate::total            1                       # mshr miss rate for WriteLineReq accesses
system.iocache.WriteLineReq_avg_mshr_miss_latency::.tsunami.ide 66911.359375                       # average WriteLineReq mshr miss latency
system.iocache.WriteLineReq_avg_mshr_miss_latency::total 66911.359375                       # average WriteLineReq mshr miss latency
system.iocache.tags.pwrStateResidencyTicks::UNDEFINED 2541847748500                       # Cumulative time (in ticks) in various power states
system.iocache.tags.tagsinuse                3.270374                       # Cycle average of tags in use
system.iocache.tags.total_refs                    179                       # Total number of references to valid blocks.
system.iocache.tags.sampled_refs                  179                       # Sample count of references to valid blocks.
system.iocache.tags.avg_refs                        1                       # Average number of references to valid blocks.
system.iocache.tags.warmup_cycle         2539427022000                       # Cycle when the warmup percentage was hit.
system.iocache.tags.occ_blocks::.tsunami.ide     3.270374                       # Average occupied blocks per requestor
system.iocache.tags.occ_percent::.tsunami.ide     0.204398                       # Average percentage of cache occupancy
system.iocache.tags.occ_percent::total       0.204398                       # Average percentage of cache occupancy
system.iocache.tags.occ_task_id_blocks::1023           16                       # Occupied blocks per task id
system.iocache.tags.age_task_id_blocks_1023::3           16                       # Occupied blocks per task id
system.iocache.tags.occ_task_id_percent::1023            1                       # Percentage of cache occupancy per task id
system.iocache.tags.tag_accesses                 1755                       # Number of tag accesses
system.iocache.tags.data_accesses                1755                       # Number of data accesses
system.membus.pwrStateResidencyTicks::UNDEFINED 2541847748500                       # Cumulative time (in ticks) in various power states
system.membus.trans_dist::ReadReq                 108                       # Transaction distribution
system.membus.trans_dist::ReadResp             128118                       # Transaction distribution
system.membus.trans_dist::WriteReq                 99                       # Transaction distribution
system.membus.trans_dist::WriteResp                99                       # Transaction distribution
system.membus.trans_dist::WritebackDirty        34854                       # Transaction distribution
system.membus.trans_dist::WritebackClean        86563                       # Transaction distribution
system.membus.trans_dist::CleanEvict            34174                       # Transaction distribution
system.membus.trans_dist::UpgradeReq               16                       # Transaction distribution
system.membus.trans_dist::ReadExReq             29019                       # Transaction distribution
system.membus.trans_dist::ReadExResp            29019                       # Transaction distribution
system.membus.trans_dist::ReadCleanReq          87153                       # Transaction distribution
system.membus.trans_dist::ReadSharedReq         40857                       # Transaction distribution
system.membus.trans_dist::InvalidateReq           192                       # Transaction distribution
system.membus.pkt_count_system.iocache.mem_side::system.mem_ctrls.port          374                       # Packet count per connected master and slave (bytes)
system.membus.pkt_count_system.iocache.mem_side::total          374                       # Packet count per connected master and slave (bytes)
system.membus.pkt_count_system.cpu.icache.mem_side::system.mem_ctrls.port       260807                       # Packet count per connected master and slave (bytes)
system.membus.pkt_count_system.cpu.icache.mem_side::total       260807                       # Packet count per connected master and slave (bytes)
system.membus.pkt_count_system.cpu.dcache.mem_side::system.bridge.slave          414                       # Packet count per connected master and slave (bytes)
system.membus.pkt_count_system.cpu.dcache.mem_side::system.mem_ctrls.port       208611                       # Packet count per connected master and slave (bytes)
system.membus.pkt_count_system.cpu.dcache.mem_side::total       209025                       # Packet count per connected master and slave (bytes)
system.membus.pkt_count::total                 470206                       # Packet count per connected master and slave (bytes)
system.membus.pkt_size_system.iocache.mem_side::system.mem_ctrls.port        11264                       # Cumulative packet size per connected master and slave (bytes)
system.membus.pkt_size_system.iocache.mem_side::total        11264                       # Cumulative packet size per connected master and slave (bytes)
system.membus.pkt_size_system.cpu.icache.mem_side::system.mem_ctrls.port     11113856                       # Cumulative packet size per connected master and slave (bytes)
system.membus.pkt_size_system.cpu.icache.mem_side::total     11113856                       # Cumulative packet size per connected master and slave (bytes)
system.membus.pkt_size_system.cpu.dcache.mem_side::system.bridge.slave          433                       # Cumulative packet size per connected master and slave (bytes)
system.membus.pkt_size_system.cpu.dcache.mem_side::system.mem_ctrls.port      6691264                       # Cumulative packet size per connected master and slave (bytes)
system.membus.pkt_size_system.cpu.dcache.mem_side::total      6691697                       # Cumulative packet size per connected master and slave (bytes)
system.membus.pkt_size::total                17816817                       # Cumulative packet size per connected master and slave (bytes)
system.membus.snoops                               65                       # Total snoops (count)
system.membus.snoopTraffic                       4160                       # Total snoop traffic (bytes)
system.membus.snoop_fanout::samples            157444                       # Request fanout histogram
system.membus.snoop_fanout::mean             0.002795                       # Request fanout histogram
system.membus.snoop_fanout::stdev            0.052791                       # Request fanout histogram
system.membus.snoop_fanout::underflows              0      0.00%      0.00% # Request fanout histogram
system.membus.snoop_fanout::0                  157004     99.72%     99.72% # Request fanout histogram
system.membus.snoop_fanout::1                     440      0.28%    100.00% # Request fanout histogram
system.membus.snoop_fanout::2                       0      0.00%    100.00% # Request fanout histogram
system.membus.snoop_fanout::3                       0      0.00%    100.00% # Request fanout histogram
system.membus.snoop_fanout::overflows               0      0.00%    100.00% # Request fanout histogram
system.membus.snoop_fanout::min_value               0                       # Request fanout histogram
system.membus.snoop_fanout::max_value               1                       # Request fanout histogram
system.membus.snoop_fanout::total              157444                       # Request fanout histogram
system.membus.reqLayer0.occupancy              351500                       # Layer occupancy (ticks)
system.membus.reqLayer0.utilization               0.0                       # Layer utilization (%)
system.membus.reqLayer1.occupancy           820873531                       # Layer occupancy (ticks)
system.membus.reqLayer1.utilization               6.9                       # Layer utilization (%)
system.membus.respLayer1.occupancy              17997                       # Layer occupancy (ticks)
system.membus.respLayer1.utilization              0.0                       # Layer utilization (%)
system.membus.respLayer3.occupancy          375883500                       # Layer occupancy (ticks)
system.membus.respLayer3.utilization              3.2                       # Layer utilization (%)
system.membus.badaddr_responder.pwrStateResidencyTicks::UNDEFINED 2541847748500                       # Cumulative time (in ticks) in various power states
system.membus.respLayer2.occupancy          462093250                       # Layer occupancy (ticks)
system.membus.respLayer2.utilization              3.9                       # Layer utilization (%)
system.clk_domain.clock                          1000                       # Clock period in ticks
system.tsunami.fake_uart1.pwrStateResidencyTicks::UNDEFINED 2541847748500                       # Cumulative time (in ticks) in various power states
system.tsunami.fake_uart2.pwrStateResidencyTicks::UNDEFINED 2541847748500                       # Cumulative time (in ticks) in various power states
system.tsunami.fake_uart3.pwrStateResidencyTicks::UNDEFINED 2541847748500                       # Cumulative time (in ticks) in various power states
system.tsunami.fake_uart4.pwrStateResidencyTicks::UNDEFINED 2541847748500                       # Cumulative time (in ticks) in various power states
system.tsunami.fake_ppc.pwrStateResidencyTicks::UNDEFINED 2541847748500                       # Cumulative time (in ticks) in various power states
system.tsunami.cchip.pwrStateResidencyTicks::UNDEFINED 2541847748500                       # Cumulative time (in ticks) in various power states
system.tsunami.io.pwrStateResidencyTicks::UNDEFINED 2541847748500                       # Cumulative time (in ticks) in various power states
system.tsunami.pchip.pwrStateResidencyTicks::UNDEFINED 2541847748500                       # Cumulative time (in ticks) in various power states
system.tsunami.fake_ata1.pwrStateResidencyTicks::UNDEFINED 2541847748500                       # Cumulative time (in ticks) in various power states
system.tsunami.fake_ata0.pwrStateResidencyTicks::UNDEFINED 2541847748500                       # Cumulative time (in ticks) in various power states
system.tsunami.backdoor.pwrStateResidencyTicks::UNDEFINED 2541847748500                       # Cumulative time (in ticks) in various power states
system.tsunami.fake_pnp_read3.pwrStateResidencyTicks::UNDEFINED 2541847748500                       # Cumulative time (in ticks) in various power states
system.tsunami.fake_pnp_read2.pwrStateResidencyTicks::UNDEFINED 2541847748500                       # Cumulative time (in ticks) in various power states
system.tsunami.fake_pnp_read1.pwrStateResidencyTicks::UNDEFINED 2541847748500                       # Cumulative time (in ticks) in various power states
system.tsunami.fake_pnp_read0.pwrStateResidencyTicks::UNDEFINED 2541847748500                       # Cumulative time (in ticks) in various power states
system.tsunami.fake_pnp_read7.pwrStateResidencyTicks::UNDEFINED 2541847748500                       # Cumulative time (in ticks) in various power states
system.tsunami.fake_pnp_read6.pwrStateResidencyTicks::UNDEFINED 2541847748500                       # Cumulative time (in ticks) in various power states
system.tsunami.fake_pnp_read5.pwrStateResidencyTicks::UNDEFINED 2541847748500                       # Cumulative time (in ticks) in various power states
system.tsunami.fake_pnp_read4.pwrStateResidencyTicks::UNDEFINED 2541847748500                       # Cumulative time (in ticks) in various power states
system.tsunami.fake_pnp_write.pwrStateResidencyTicks::UNDEFINED 2541847748500                       # Cumulative time (in ticks) in various power states
system.tsunami.fb.pwrStateResidencyTicks::UNDEFINED 2541847748500                       # Cumulative time (in ticks) in various power states
system.tsunami.fake_pnp_addr.pwrStateResidencyTicks::UNDEFINED 2541847748500                       # Cumulative time (in ticks) in various power states
system.tsunami.fake_OROM.pwrStateResidencyTicks::UNDEFINED 2541847748500                       # Cumulative time (in ticks) in various power states
system.tsunami.uart.pwrStateResidencyTicks::UNDEFINED 2541847748500                       # Cumulative time (in ticks) in various power states
system.tsunami.fake_sm_chip.pwrStateResidencyTicks::UNDEFINED 2541847748500                       # Cumulative time (in ticks) in various power states
system.tsunami.ethernet.pwrStateResidencyTicks::UNDEFINED 2541847748500                       # Cumulative time (in ticks) in various power states
system.tsunami.ide.pwrStateResidencyTicks::UNDEFINED 2541847748500                       # Cumulative time (in ticks) in various power states
system.cpu_voltage_domain.voltage                   1                       # Voltage in Volts
system.mem_ctrls.pwrStateResidencyTicks::UNDEFINED 2541847748500                       # Cumulative time (in ticks) in various power states
system.mem_ctrls.bytes_read::.cpu.inst        5573824                       # Number of bytes read from this memory
system.mem_ctrls.bytes_read::.cpu.data        4471872                       # Number of bytes read from this memory
system.mem_ctrls.bytes_read::total           10045696                       # Number of bytes read from this memory
system.mem_ctrls.bytes_inst_read::.cpu.inst      5573824                       # Number of instructions bytes read from this memory
system.mem_ctrls.bytes_inst_read::total       5573824                       # Number of instructions bytes read from this memory
system.mem_ctrls.bytes_written::.writebacks      2230656                       # Number of bytes written to this memory
system.mem_ctrls.bytes_written::total         2230656                       # Number of bytes written to this memory
system.mem_ctrls.num_reads::.cpu.inst           87091                       # Number of read requests responded to by this memory
system.mem_ctrls.num_reads::.cpu.data           69873                       # Number of read requests responded to by this memory
system.mem_ctrls.num_reads::total              156964                       # Number of read requests responded to by this memory
system.mem_ctrls.num_writes::.writebacks        34854                       # Number of write requests responded to by this memory
system.mem_ctrls.num_writes::total              34854                       # Number of write requests responded to by this memory
system.mem_ctrls.bw_read::.cpu.inst         470845534                       # Total read bandwidth from this memory (bytes/s)
system.mem_ctrls.bw_read::.cpu.data         377758781                       # Total read bandwidth from this memory (bytes/s)
system.mem_ctrls.bw_read::total             848604316                       # Total read bandwidth from this memory (bytes/s)
system.mem_ctrls.bw_inst_read::.cpu.inst    470845534                       # Instruction read bandwidth from this memory (bytes/s)
system.mem_ctrls.bw_inst_read::total        470845534                       # Instruction read bandwidth from this memory (bytes/s)
system.mem_ctrls.bw_write::.writebacks      188433366                       # Write bandwidth from this memory (bytes/s)
system.mem_ctrls.bw_write::total            188433366                       # Write bandwidth from this memory (bytes/s)
system.mem_ctrls.bw_total::.writebacks      188433366                       # Total bandwidth to/from this memory (bytes/s)
system.mem_ctrls.bw_total::.cpu.inst        470845534                       # Total bandwidth to/from this memory (bytes/s)
system.mem_ctrls.bw_total::.cpu.data        377758781                       # Total bandwidth to/from this memory (bytes/s)
system.mem_ctrls.bw_total::total           1037037682                       # Total bandwidth to/from this memory (bytes/s)
system.mem_ctrls.avgPriority_.writebacks::samples    118981.00                       # Average QoS priority value for accepted requests
system.mem_ctrls.avgPriority_.cpu.inst::samples     77243.00                       # Average QoS priority value for accepted requests
system.mem_ctrls.avgPriority_.cpu.data::samples     69362.00                       # Average QoS priority value for accepted requests
system.mem_ctrls.priorityMinLatency      0.000000018750                       # per QoS priority minimum request to response latency (s)
system.mem_ctrls.priorityMaxLatency      0.000124324500                       # per QoS priority maximum request to response latency (s)
system.mem_ctrls.numReadWriteTurnArounds         7330                       # Number of turnarounds from READ to WRITE
system.mem_ctrls.numWriteReadTurnArounds         7330                       # Number of turnarounds from WRITE to READ
system.mem_ctrls.numStayReadState              406647                       # Number of times bus staying in READ state
system.mem_ctrls.numStayWriteState             111714                       # Number of times bus staying in WRITE state
system.mem_ctrls.readReqs                      156964                       # Number of read requests accepted
system.mem_ctrls.writeReqs                     121201                       # Number of write requests accepted
system.mem_ctrls.readBursts                    156964                       # Number of DRAM read bursts, including those serviced by the write queue
system.mem_ctrls.writeBursts                   121201                       # Number of DRAM write bursts, including those merged in the write queue
system.mem_ctrls.servicedByWrQ                  10359                       # Number of DRAM read bursts serviced by the write queue
system.mem_ctrls.mergedWrBursts                  2220                       # Number of DRAM write bursts merged with an existing one
system.mem_ctrls.neitherReadNorWriteReqs            0                       # Number of requests that are neither read nor write
system.mem_ctrls.perBankRdBursts::0              8768                       # Per bank write bursts
system.mem_ctrls.perBankRdBursts::1              6638                       # Per bank write bursts
system.mem_ctrls.perBankRdBursts::2              9865                       # Per bank write bursts
system.mem_ctrls.perBankRdBursts::3              7155                       # Per bank write bursts
system.mem_ctrls.perBankRdBursts::4              8560                       # Per bank write bursts
system.mem_ctrls.perBankRdBursts::5             10076                       # Per bank write bursts
system.mem_ctrls.perBankRdBursts::6              8512                       # Per bank write bursts
system.mem_ctrls.perBankRdBursts::7              8678                       # Per bank write bursts
system.mem_ctrls.perBankRdBursts::8             11809                       # Per bank write bursts
system.mem_ctrls.perBankRdBursts::9              9219                       # Per bank write bursts
system.mem_ctrls.perBankRdBursts::10            10623                       # Per bank write bursts
system.mem_ctrls.perBankRdBursts::11            11986                       # Per bank write bursts
system.mem_ctrls.perBankRdBursts::12             8843                       # Per bank write bursts
system.mem_ctrls.perBankRdBursts::13            13498                       # Per bank write bursts
system.mem_ctrls.perBankRdBursts::14             5517                       # Per bank write bursts
system.mem_ctrls.perBankRdBursts::15             6858                       # Per bank write bursts
system.mem_ctrls.perBankWrBursts::0              7035                       # Per bank write bursts
system.mem_ctrls.perBankWrBursts::1              4453                       # Per bank write bursts
system.mem_ctrls.perBankWrBursts::2              8592                       # Per bank write bursts
system.mem_ctrls.perBankWrBursts::3              7966                       # Per bank write bursts
system.mem_ctrls.perBankWrBursts::4              7711                       # Per bank write bursts
system.mem_ctrls.perBankWrBursts::5              9875                       # Per bank write bursts
system.mem_ctrls.perBankWrBursts::6              7277                       # Per bank write bursts
system.mem_ctrls.perBankWrBursts::7              6861                       # Per bank write bursts
system.mem_ctrls.perBankWrBursts::8             10563                       # Per bank write bursts
system.mem_ctrls.perBankWrBursts::9              8380                       # Per bank write bursts
system.mem_ctrls.perBankWrBursts::10             7918                       # Per bank write bursts
system.mem_ctrls.perBankWrBursts::11             8051                       # Per bank write bursts
system.mem_ctrls.perBankWrBursts::12             5457                       # Per bank write bursts
system.mem_ctrls.perBankWrBursts::13             9911                       # Per bank write bursts
system.mem_ctrls.perBankWrBursts::14             3174                       # Per bank write bursts
system.mem_ctrls.perBankWrBursts::15             5733                       # Per bank write bursts
system.mem_ctrls.avgRdQLen                       1.09                       # Average read queue length when enqueuing
system.mem_ctrls.avgWrQLen                      25.72                       # Average write queue length when enqueuing
system.mem_ctrls.totQLat                   2009326250                       # Total ticks spent queuing
system.mem_ctrls.totBusLat                  733025000                       # Total ticks spent in databus transfers
system.mem_ctrls.totMemAccLat              4758170000                       # Total ticks spent from burst creation until serviced by the DRAM
system.mem_ctrls.avgQLat                     13705.71                       # Average queueing delay per DRAM burst
system.mem_ctrls.avgBusLat                    5000.00                       # Average bus latency per DRAM burst
system.mem_ctrls.avgMemAccLat                32455.71                       # Average memory access latency per DRAM burst
system.mem_ctrls.numRdRetry                         0                       # Number of times read queue was full causing retry
system.mem_ctrls.numWrRetry                         0                       # Number of times write queue was full causing retry
system.mem_ctrls.readRowHits                   103934                       # Number of row buffer hits during reads
system.mem_ctrls.writeRowHits                   80289                       # Number of row buffer hits during writes
system.mem_ctrls.readRowHitRate                 70.89                       # Row buffer hit rate for reads
system.mem_ctrls.writeRowHitRate                67.48                       # Row buffer hit rate for writes
system.mem_ctrls.readPktSize::0                     0                       # Read request sizes (log2)
system.mem_ctrls.readPktSize::1                     0                       # Read request sizes (log2)
system.mem_ctrls.readPktSize::2                     0                       # Read request sizes (log2)
system.mem_ctrls.readPktSize::3                     0                       # Read request sizes (log2)
system.mem_ctrls.readPktSize::4                     0                       # Read request sizes (log2)
system.mem_ctrls.readPktSize::5                     0                       # Read request sizes (log2)
system.mem_ctrls.readPktSize::6                156964                       # Read request sizes (log2)
system.mem_ctrls.writePktSize::0                    0                       # Write request sizes (log2)
system.mem_ctrls.writePktSize::1                    0                       # Write request sizes (log2)
system.mem_ctrls.writePktSize::2                    0                       # Write request sizes (log2)
system.mem_ctrls.writePktSize::3                    0                       # Write request sizes (log2)
system.mem_ctrls.writePktSize::4                    0                       # Write request sizes (log2)
system.mem_ctrls.writePktSize::5                    0                       # Write request sizes (log2)
system.mem_ctrls.writePktSize::6               121201                       # Write request sizes (log2)
system.mem_ctrls.rdQLenPdf::0                  134114                       # What read queue length does an incoming req see
system.mem_ctrls.rdQLenPdf::1                   12165                       # What read queue length does an incoming req see
system.mem_ctrls.rdQLenPdf::2                     326                       # What read queue length does an incoming req see
system.mem_ctrls.rdQLenPdf::3                       0                       # What read queue length does an incoming req see
system.mem_ctrls.rdQLenPdf::4                       0                       # What read queue length does an incoming req see
system.mem_ctrls.rdQLenPdf::5                       0                       # What read queue length does an incoming req see
system.mem_ctrls.rdQLenPdf::6                       0                       # What read queue length does an incoming req see
system.mem_ctrls.rdQLenPdf::7                       0                       # What read queue length does an incoming req see
system.mem_ctrls.rdQLenPdf::8                       0                       # What read queue length does an incoming req see
system.mem_ctrls.rdQLenPdf::9                       0                       # What read queue length does an incoming req see
system.mem_ctrls.rdQLenPdf::10                      0                       # What read queue length does an incoming req see
system.mem_ctrls.rdQLenPdf::11                      0                       # What read queue length does an incoming req see
system.mem_ctrls.rdQLenPdf::12                      0                       # What read queue length does an incoming req see
system.mem_ctrls.rdQLenPdf::13                      0                       # What read queue length does an incoming req see
system.mem_ctrls.rdQLenPdf::14                      0                       # What read queue length does an incoming req see
system.mem_ctrls.rdQLenPdf::15                      0                       # What read queue length does an incoming req see
system.mem_ctrls.rdQLenPdf::16                      0                       # What read queue length does an incoming req see
system.mem_ctrls.rdQLenPdf::17                      0                       # What read queue length does an incoming req see
system.mem_ctrls.rdQLenPdf::18                      0                       # What read queue length does an incoming req see
system.mem_ctrls.rdQLenPdf::19                      0                       # What read queue length does an incoming req see
system.mem_ctrls.rdQLenPdf::20                      0                       # What read queue length does an incoming req see
system.mem_ctrls.rdQLenPdf::21                      0                       # What read queue length does an incoming req see
system.mem_ctrls.rdQLenPdf::22                      0                       # What read queue length does an incoming req see
system.mem_ctrls.rdQLenPdf::23                      0                       # What read queue length does an incoming req see
system.mem_ctrls.rdQLenPdf::24                      0                       # What read queue length does an incoming req see
system.mem_ctrls.rdQLenPdf::25                      0                       # What read queue length does an incoming req see
system.mem_ctrls.rdQLenPdf::26                      0                       # What read queue length does an incoming req see
system.mem_ctrls.rdQLenPdf::27                      0                       # What read queue length does an incoming req see
system.mem_ctrls.rdQLenPdf::28                      0                       # What read queue length does an incoming req see
system.mem_ctrls.rdQLenPdf::29                      0                       # What read queue length does an incoming req see
system.mem_ctrls.rdQLenPdf::30                      0                       # What read queue length does an incoming req see
system.mem_ctrls.rdQLenPdf::31                      0                       # What read queue length does an incoming req see
system.mem_ctrls.wrQLenPdf::0                       1                       # What write queue length does an incoming req see
system.mem_ctrls.wrQLenPdf::1                       1                       # What write queue length does an incoming req see
system.mem_ctrls.wrQLenPdf::2                       1                       # What write queue length does an incoming req see
system.mem_ctrls.wrQLenPdf::3                       1                       # What write queue length does an incoming req see
system.mem_ctrls.wrQLenPdf::4                       1                       # What write queue length does an incoming req see
system.mem_ctrls.wrQLenPdf::5                       1                       # What write queue length does an incoming req see
system.mem_ctrls.wrQLenPdf::6                       1                       # What write queue length does an incoming req see
system.mem_ctrls.wrQLenPdf::7                       1                       # What write queue length does an incoming req see
system.mem_ctrls.wrQLenPdf::8                       1                       # What write queue length does an incoming req see
system.mem_ctrls.wrQLenPdf::9                       1                       # What write queue length does an incoming req see
system.mem_ctrls.wrQLenPdf::10                      1                       # What write queue length does an incoming req see
system.mem_ctrls.wrQLenPdf::11                      1                       # What write queue length does an incoming req see
system.mem_ctrls.wrQLenPdf::12                      1                       # What write queue length does an incoming req see
system.mem_ctrls.wrQLenPdf::13                      1                       # What write queue length does an incoming req see
system.mem_ctrls.wrQLenPdf::14                      1                       # What write queue length does an incoming req see
system.mem_ctrls.wrQLenPdf::15                    620                       # What write queue length does an incoming req see
system.mem_ctrls.wrQLenPdf::16                    719                       # What write queue length does an incoming req see
system.mem_ctrls.wrQLenPdf::17                   6707                       # What write queue length does an incoming req see
system.mem_ctrls.wrQLenPdf::18                   7351                       # What write queue length does an incoming req see
system.mem_ctrls.wrQLenPdf::19                   7455                       # What write queue length does an incoming req see
system.mem_ctrls.wrQLenPdf::20                   7401                       # What write queue length does an incoming req see
system.mem_ctrls.wrQLenPdf::21                   7410                       # What write queue length does an incoming req see
system.mem_ctrls.wrQLenPdf::22                   7521                       # What write queue length does an incoming req see
system.mem_ctrls.wrQLenPdf::23                   7412                       # What write queue length does an incoming req see
system.mem_ctrls.wrQLenPdf::24                   7394                       # What write queue length does an incoming req see
system.mem_ctrls.wrQLenPdf::25                   7388                       # What write queue length does an incoming req see
system.mem_ctrls.wrQLenPdf::26                   7423                       # What write queue length does an incoming req see
system.mem_ctrls.wrQLenPdf::27                   7380                       # What write queue length does an incoming req see
system.mem_ctrls.wrQLenPdf::28                   7358                       # What write queue length does an incoming req see
system.mem_ctrls.wrQLenPdf::29                   7369                       # What write queue length does an incoming req see
system.mem_ctrls.wrQLenPdf::30                   7352                       # What write queue length does an incoming req see
system.mem_ctrls.wrQLenPdf::31                   7337                       # What write queue length does an incoming req see
system.mem_ctrls.wrQLenPdf::32                   7338                       # What write queue length does an incoming req see
system.mem_ctrls.wrQLenPdf::33                     21                       # What write queue length does an incoming req see
system.mem_ctrls.wrQLenPdf::34                      7                       # What write queue length does an incoming req see
system.mem_ctrls.wrQLenPdf::35                      3                       # What write queue length does an incoming req see
system.mem_ctrls.wrQLenPdf::36                      0                       # What write queue length does an incoming req see
system.mem_ctrls.wrQLenPdf::37                      0                       # What write queue length does an incoming req see
system.mem_ctrls.wrQLenPdf::38                      0                       # What write queue length does an incoming req see
system.mem_ctrls.wrQLenPdf::39                      0                       # What write queue length does an incoming req see
system.mem_ctrls.wrQLenPdf::40                      0                       # What write queue length does an incoming req see
system.mem_ctrls.wrQLenPdf::41                      0                       # What write queue length does an incoming req see
system.mem_ctrls.wrQLenPdf::42                      0                       # What write queue length does an incoming req see
system.mem_ctrls.wrQLenPdf::43                      0                       # What write queue length does an incoming req see
system.mem_ctrls.wrQLenPdf::44                      0                       # What write queue length does an incoming req see
system.mem_ctrls.wrQLenPdf::45                      0                       # What write queue length does an incoming req see
system.mem_ctrls.wrQLenPdf::46                      0                       # What write queue length does an incoming req see
system.mem_ctrls.wrQLenPdf::47                      0                       # What write queue length does an incoming req see
system.mem_ctrls.wrQLenPdf::48                      0                       # What write queue length does an incoming req see
system.mem_ctrls.wrQLenPdf::49                      0                       # What write queue length does an incoming req see
system.mem_ctrls.wrQLenPdf::50                      0                       # What write queue length does an incoming req see
system.mem_ctrls.wrQLenPdf::51                      0                       # What write queue length does an incoming req see
system.mem_ctrls.wrQLenPdf::52                      0                       # What write queue length does an incoming req see
system.mem_ctrls.wrQLenPdf::53                      0                       # What write queue length does an incoming req see
system.mem_ctrls.wrQLenPdf::54                      0                       # What write queue length does an incoming req see
system.mem_ctrls.wrQLenPdf::55                      0                       # What write queue length does an incoming req see
system.mem_ctrls.wrQLenPdf::56                      0                       # What write queue length does an incoming req see
system.mem_ctrls.wrQLenPdf::57                      0                       # What write queue length does an incoming req see
system.mem_ctrls.wrQLenPdf::58                      0                       # What write queue length does an incoming req see
system.mem_ctrls.wrQLenPdf::59                      0                       # What write queue length does an incoming req see
system.mem_ctrls.wrQLenPdf::60                      0                       # What write queue length does an incoming req see
system.mem_ctrls.wrQLenPdf::61                      0                       # What write queue length does an incoming req see
system.mem_ctrls.wrQLenPdf::62                      0                       # What write queue length does an incoming req see
system.mem_ctrls.wrQLenPdf::63                      0                       # What write queue length does an incoming req see
system.mem_ctrls.bytesPerActivate::samples        81329                       # Bytes accessed per row activation
system.mem_ctrls.bytesPerActivate::mean    208.954346                       # Bytes accessed per row activation
system.mem_ctrls.bytesPerActivate::gmean   140.301020                       # Bytes accessed per row activation
system.mem_ctrls.bytesPerActivate::stdev   225.947129                       # Bytes accessed per row activation
system.mem_ctrls.bytesPerActivate::0-127        34463     42.37%     42.37% # Bytes accessed per row activation
system.mem_ctrls.bytesPerActivate::128-255        24186     29.74%     72.11% # Bytes accessed per row activation
system.mem_ctrls.bytesPerActivate::256-383         9846     12.11%     84.22% # Bytes accessed per row activation
system.mem_ctrls.bytesPerActivate::384-511         4701      5.78%     90.00% # Bytes accessed per row activation
system.mem_ctrls.bytesPerActivate::512-639         2344      2.88%     92.88% # Bytes accessed per row activation
system.mem_ctrls.bytesPerActivate::640-767         1420      1.75%     94.63% # Bytes accessed per row activation
system.mem_ctrls.bytesPerActivate::768-895          925      1.14%     95.77% # Bytes accessed per row activation
system.mem_ctrls.bytesPerActivate::896-1023          624      0.77%     96.53% # Bytes accessed per row activation
system.mem_ctrls.bytesPerActivate::1024-1151         2820      3.47%    100.00% # Bytes accessed per row activation
system.mem_ctrls.bytesPerActivate::total        81329                       # Bytes accessed per row activation
system.mem_ctrls.rdPerTurnAround::samples         7330                       # Reads before turning the bus around for writes
system.mem_ctrls.rdPerTurnAround::mean      19.999727                       # Reads before turning the bus around for writes
system.mem_ctrls.rdPerTurnAround::gmean     18.387122                       # Reads before turning the bus around for writes
system.mem_ctrls.rdPerTurnAround::stdev     12.655301                       # Reads before turning the bus around for writes
system.mem_ctrls.rdPerTurnAround::0-15           1299     17.72%     17.72% # Reads before turning the bus around for writes
system.mem_ctrls.rdPerTurnAround::16-31          5546     75.66%     93.38% # Reads before turning the bus around for writes
system.mem_ctrls.rdPerTurnAround::32-47           292      3.98%     97.37% # Reads before turning the bus around for writes
system.mem_ctrls.rdPerTurnAround::48-63            90      1.23%     98.59% # Reads before turning the bus around for writes
system.mem_ctrls.rdPerTurnAround::64-79            42      0.57%     99.17% # Reads before turning the bus around for writes
system.mem_ctrls.rdPerTurnAround::80-95            20      0.27%     99.44% # Reads before turning the bus around for writes
system.mem_ctrls.rdPerTurnAround::96-111           15      0.20%     99.65% # Reads before turning the bus around for writes
system.mem_ctrls.rdPerTurnAround::112-127            9      0.12%     99.77% # Reads before turning the bus around for writes
system.mem_ctrls.rdPerTurnAround::128-143            9      0.12%     99.89% # Reads before turning the bus around for writes
system.mem_ctrls.rdPerTurnAround::144-159            4      0.05%     99.95% # Reads before turning the bus around for writes
system.mem_ctrls.rdPerTurnAround::160-175            2      0.03%     99.97% # Reads before turning the bus around for writes
system.mem_ctrls.rdPerTurnAround::256-271            1      0.01%     99.99% # Reads before turning the bus around for writes
system.mem_ctrls.rdPerTurnAround::400-415            1      0.01%    100.00% # Reads before turning the bus around for writes
system.mem_ctrls.rdPerTurnAround::total          7330                       # Reads before turning the bus around for writes
system.mem_ctrls.wrPerTurnAround::samples         7330                       # Writes before turning the bus around for reads
system.mem_ctrls.wrPerTurnAround::mean      16.228786                       # Writes before turning the bus around for reads
system.mem_ctrls.wrPerTurnAround::gmean     16.213885                       # Writes before turning the bus around for reads
system.mem_ctrls.wrPerTurnAround::stdev      0.727913                       # Writes before turning the bus around for reads
system.mem_ctrls.wrPerTurnAround::16             6592     89.93%     89.93% # Writes before turning the bus around for reads
system.mem_ctrls.wrPerTurnAround::17               83      1.13%     91.06% # Writes before turning the bus around for reads
system.mem_ctrls.wrPerTurnAround::18              437      5.96%     97.03% # Writes before turning the bus around for reads
system.mem_ctrls.wrPerTurnAround::19              157      2.14%     99.17% # Writes before turning the bus around for reads
system.mem_ctrls.wrPerTurnAround::20               57      0.78%     99.95% # Writes before turning the bus around for reads
system.mem_ctrls.wrPerTurnAround::21                3      0.04%     99.99% # Writes before turning the bus around for reads
system.mem_ctrls.wrPerTurnAround::22                1      0.01%    100.00% # Writes before turning the bus around for reads
system.mem_ctrls.wrPerTurnAround::total          7330                       # Writes before turning the bus around for reads
system.mem_ctrls.bytesReadDRAM                9382720                       # Total number of bytes read from DRAM
system.mem_ctrls.bytesReadWrQ                  662976                       # Total number of bytes read from write queue
system.mem_ctrls.bytesWritten                 7613248                       # Total number of bytes written to DRAM
system.mem_ctrls.bytesReadSys                10045696                       # Total read bytes from the system interface side
system.mem_ctrls.bytesWrittenSys              7756864                       # Total written bytes from the system interface side
system.mem_ctrls.avgRdBW                       792.60                       # Average DRAM read bandwidth in MiByte/s
system.mem_ctrls.avgWrBW                       643.12                       # Average achieved write bandwidth in MiByte/s
system.mem_ctrls.avgRdBWSys                    848.60                       # Average system read bandwidth in MiByte/s
system.mem_ctrls.avgWrBWSys                    655.26                       # Average system write bandwidth in MiByte/s
system.mem_ctrls.peakBW                      12800.00                       # Theoretical peak bandwidth in MiByte/s
system.mem_ctrls.busUtil                        11.22                       # Data bus utilization in percentage
system.mem_ctrls.busUtilRead                     6.19                       # Data bus utilization in percentage for reads
system.mem_ctrls.busUtilWrite                    5.02                       # Data bus utilization in percentage for writes
system.mem_ctrls.totGap                   11837898500                       # Total gap between requests
system.mem_ctrls.avgGap                      42557.11                       # Average gap between requests
system.mem_ctrls.masterReadBytes::.cpu.inst      4943552                       # Per-master bytes read from memory
system.mem_ctrls.masterReadBytes::.cpu.data      4439168                       # Per-master bytes read from memory
system.mem_ctrls.masterWriteBytes::.writebacks      7613248                       # Per-master bytes write to memory
system.mem_ctrls.masterReadRate::.cpu.inst 417603674.501992702484                       # Per-master bytes read from memory rate (Bytes/sec)
system.mem_ctrls.masterReadRate::.cpu.data 374996130.015758275986                       # Per-master bytes read from memory rate (Bytes/sec)
system.mem_ctrls.masterWriteRate::.writebacks 643124688.421391487122                       # Per-master bytes write to memory rate (Bytes/sec)
system.mem_ctrls.masterReadAccesses::.cpu.inst        87091                       # Per-master read serviced memory accesses
system.mem_ctrls.masterReadAccesses::.cpu.data        69873                       # Per-master read serviced memory accesses
system.mem_ctrls.masterWriteAccesses::.writebacks       121201                       # Per-master write serviced memory accesses
[...]
system.cpu.icache.tags.occ_blocks::.cpu.inst          512                       # Average occupied blocks per requestor
system.cpu.icache.tags.occ_percent::.cpu.inst            1                       # Average percentage of cache occupancy
system.cpu.icache.tags.occ_percent::total            1                       # Average percentage of cache occupancy
system.cpu.icache.tags.occ_task_id_blocks::1024          512                       # Occupied blocks per task id
system.cpu.icache.tags.age_task_id_blocks_1024::2           70                       # Occupied blocks per task id
system.cpu.icache.tags.age_task_id_blocks_1024::3          390                       # Occupied blocks per task id
system.cpu.icache.tags.age_task_id_blocks_1024::4           52                       # Occupied blocks per task id
system.cpu.icache.tags.occ_task_id_percent::1024            1                       # Percentage of cache occupancy per task id
system.cpu.icache.tags.tag_accesses         248542762                       # Number of tag accesses
system.cpu.icache.tags.data_accesses        248542762                       # Number of data accesses
system.cpu.dcache.pwrStateResidencyTicks::UNDEFINED 506569006000                       # Cumulative time (in ticks) in various power states
system.cpu.dcache.demand_hits::.cpu.data    124747459                       # number of demand (read+write) hits
system.cpu.dcache.demand_hits::total        124747459                       # number of demand (read+write) hits
system.cpu.dcache.overall_hits::.cpu.data    124747459                       # number of overall hits
system.cpu.dcache.overall_hits::total       124747459                       # number of overall hits
system.cpu.dcache.demand_misses::.cpu.data      4278752                       # number of demand (read+write) misses
system.cpu.dcache.demand_misses::total        4278752                       # number of demand (read+write) misses
system.cpu.dcache.overall_misses::.cpu.data      4278752                       # number of overall misses
system.cpu.dcache.overall_misses::total       4278752                       # number of overall misses
system.cpu.dcache.demand_miss_latency::.cpu.data 257954778000                       # number of demand (read+write) miss cycles
system.cpu.dcache.demand_miss_latency::total 257954778000                       # number of demand (read+write) miss cycles
system.cpu.dcache.overall_miss_latency::.cpu.data 257954778000                       # number of overall miss cycles
system.cpu.dcache.overall_miss_latency::total 257954778000                       # number of overall miss cycles
system.cpu.dcache.demand_accesses::.cpu.data    129026211                       # number of demand (read+write) accesses
system.cpu.dcache.demand_accesses::total    129026211                       # number of demand (read+write) accesses
system.cpu.dcache.overall_accesses::.cpu.data    129026211                       # number of overall (read+write) accesses
system.cpu.dcache.overall_accesses::total    129026211                       # number of overall (read+write) accesses
system.cpu.dcache.demand_miss_rate::.cpu.data     0.033162                       # miss rate for demand accesses
system.cpu.dcache.demand_miss_rate::total     0.033162                       # miss rate for demand accesses
system.cpu.dcache.overall_miss_rate::.cpu.data     0.033162                       # miss rate for overall accesses
system.cpu.dcache.overall_miss_rate::total     0.033162                       # miss rate for overall accesses
system.cpu.dcache.demand_avg_miss_latency::.cpu.data 60287.387070                       # average overall miss latency
system.cpu.dcache.demand_avg_miss_latency::total 60287.387070                       # average overall miss latency
system.cpu.dcache.overall_avg_miss_latency::.cpu.data 60287.387070                       # average overall miss latency
system.cpu.dcache.overall_avg_miss_latency::total 60287.387070                       # average overall miss latency
system.cpu.dcache.blocked_cycles::no_mshrs            0                       # number of cycles access was blocked
system.cpu.dcache.blocked_cycles::no_targets            0                       # number of cycles access was blocked
system.cpu.dcache.blocked::no_mshrs                 0                       # number of cycles access was blocked
system.cpu.dcache.blocked::no_targets               0                       # number of cycles access was blocked
system.cpu.dcache.avg_blocked_cycles::no_mshrs          nan                       # average number of cycles each access was blocked
system.cpu.dcache.avg_blocked_cycles::no_targets          nan                       # average number of cycles each access was blocked
system.cpu.dcache.writebacks::.writebacks      1843970                       # number of writebacks
system.cpu.dcache.writebacks::total           1843970                       # number of writebacks
system.cpu.dcache.demand_mshr_hits::.cpu.data      1182910                       # number of demand (read+write) MSHR hits
system.cpu.dcache.demand_mshr_hits::total      1182910                       # number of demand (read+write) MSHR hits
system.cpu.dcache.overall_mshr_hits::.cpu.data      1182910                       # number of overall MSHR hits
system.cpu.dcache.overall_mshr_hits::total      1182910                       # number of overall MSHR hits
system.cpu.dcache.demand_mshr_misses::.cpu.data      3095842                       # number of demand (read+write) MSHR misses
system.cpu.dcache.demand_mshr_misses::total      3095842                       # number of demand (read+write) MSHR misses
system.cpu.dcache.overall_mshr_misses::.cpu.data      3095842                       # number of overall MSHR misses
system.cpu.dcache.overall_mshr_misses::total      3095842                       # number of overall MSHR misses
system.cpu.dcache.overall_mshr_uncacheable_misses::.cpu.data         1159                       # number of overall MSHR uncacheable misses
system.cpu.dcache.overall_mshr_uncacheable_misses::total         1159                       # number of overall MSHR uncacheable misses
system.cpu.dcache.demand_mshr_miss_latency::.cpu.data 180960511500                       # number of demand (read+write) MSHR miss cycles
system.cpu.dcache.demand_mshr_miss_latency::total 180960511500                       # number of demand (read+write) MSHR miss cycles
system.cpu.dcache.overall_mshr_miss_latency::.cpu.data 180960511500                       # number of overall MSHR miss cycles
system.cpu.dcache.overall_mshr_miss_latency::total 180960511500                       # number of overall MSHR miss cycles
system.cpu.dcache.overall_mshr_uncacheable_latency::.cpu.data     47864000                       # number of overall MSHR uncacheable cycles
system.cpu.dcache.overall_mshr_uncacheable_latency::total     47864000                       # number of overall MSHR uncacheable cycles
system.cpu.dcache.demand_mshr_miss_rate::.cpu.data     0.023994                       # mshr miss rate for demand accesses
system.cpu.dcache.demand_mshr_miss_rate::total     0.023994                       # mshr miss rate for demand accesses
system.cpu.dcache.overall_mshr_miss_rate::.cpu.data     0.023994                       # mshr miss rate for overall accesses
system.cpu.dcache.overall_mshr_miss_rate::total     0.023994                       # mshr miss rate for overall accesses
system.cpu.dcache.demand_avg_mshr_miss_latency::.cpu.data 58452.760671                       # average overall mshr miss latency
system.cpu.dcache.demand_avg_mshr_miss_latency::total 58452.760671                       # average overall mshr miss latency
system.cpu.dcache.overall_avg_mshr_miss_latency::.cpu.data 58452.760671                       # average overall mshr miss latency
system.cpu.dcache.overall_avg_mshr_miss_latency::total 58452.760671                       # average overall mshr miss latency
system.cpu.dcache.overall_avg_mshr_uncacheable_latency::.cpu.data 41297.670406                       # average overall mshr uncacheable latency
system.cpu.dcache.overall_avg_mshr_uncacheable_latency::total 41297.670406                       # average overall mshr uncacheable latency
system.cpu.dcache.replacements                3099198                       # number of replacements
system.cpu.dcache.ReadReq_hits::.cpu.data     85847087                       # number of ReadReq hits
system.cpu.dcache.ReadReq_hits::total        85847087                       # number of ReadReq hits
system.cpu.dcache.ReadReq_misses::.cpu.data      1890518                       # number of ReadReq misses
system.cpu.dcache.ReadReq_misses::total       1890518                       # number of ReadReq misses
system.cpu.dcache.ReadReq_miss_latency::.cpu.data 109756608500                       # number of ReadReq miss cycles
system.cpu.dcache.ReadReq_miss_latency::total 109756608500                       # number of ReadReq miss cycles
system.cpu.dcache.ReadReq_accesses::.cpu.data     87737605                       # number of ReadReq accesses(hits+misses)
system.cpu.dcache.ReadReq_accesses::total     87737605                       # number of ReadReq accesses(hits+misses)
system.cpu.dcache.ReadReq_miss_rate::.cpu.data     0.021547                       # miss rate for ReadReq accesses
system.cpu.dcache.ReadReq_miss_rate::total     0.021547                       # miss rate for ReadReq accesses
system.cpu.dcache.ReadReq_avg_miss_latency::.cpu.data 58056.367884                       # average ReadReq miss latency
system.cpu.dcache.ReadReq_avg_miss_latency::total 58056.367884                       # average ReadReq miss latency
system.cpu.dcache.ReadReq_mshr_hits::.cpu.data       107041                       # number of ReadReq MSHR hits
system.cpu.dcache.ReadReq_mshr_hits::total       107041                       # number of ReadReq MSHR hits
system.cpu.dcache.ReadReq_mshr_misses::.cpu.data      1783477                       # number of ReadReq MSHR misses
system.cpu.dcache.ReadReq_mshr_misses::total      1783477                       # number of ReadReq MSHR misses
system.cpu.dcache.ReadReq_mshr_uncacheable::.cpu.data          272                       # number of ReadReq MSHR uncacheable
system.cpu.dcache.ReadReq_mshr_uncacheable::total          272                       # number of ReadReq MSHR uncacheable
system.cpu.dcache.ReadReq_mshr_miss_latency::.cpu.data 101738848000                       # number of ReadReq MSHR miss cycles
system.cpu.dcache.ReadReq_mshr_miss_latency::total 101738848000                       # number of ReadReq MSHR miss cycles
system.cpu.dcache.ReadReq_mshr_uncacheable_latency::.cpu.data     47864000                       # number of ReadReq MSHR uncacheable cycles
system.cpu.dcache.ReadReq_mshr_uncacheable_latency::total     47864000                       # number of ReadReq MSHR uncacheable cycles
system.cpu.dcache.ReadReq_mshr_miss_rate::.cpu.data     0.020327                       # mshr miss rate for ReadReq accesses
system.cpu.dcache.ReadReq_mshr_miss_rate::total     0.020327                       # mshr miss rate for ReadReq accesses
system.cpu.dcache.ReadReq_avg_mshr_miss_latency::.cpu.data 57045.225702                       # average ReadReq mshr miss latency
system.cpu.dcache.ReadReq_avg_mshr_miss_latency::total 57045.225702                       # average ReadReq mshr miss latency
system.cpu.dcache.ReadReq_avg_mshr_uncacheable_latency::.cpu.data 175970.588235                       # average ReadReq mshr uncacheable latency
system.cpu.dcache.ReadReq_avg_mshr_uncacheable_latency::total 175970.588235                       # average ReadReq mshr uncacheable latency
system.cpu.dcache.WriteReq_hits::.cpu.data     38900372                       # number of WriteReq hits
system.cpu.dcache.WriteReq_hits::total       38900372                       # number of WriteReq hits
system.cpu.dcache.WriteReq_misses::.cpu.data      2388234                       # number of WriteReq misses
system.cpu.dcache.WriteReq_misses::total      2388234                       # number of WriteReq misses
system.cpu.dcache.WriteReq_miss_latency::.cpu.data 148198169500                       # number of WriteReq miss cycles
system.cpu.dcache.WriteReq_miss_latency::total 148198169500                       # number of WriteReq miss cycles
system.cpu.dcache.WriteReq_accesses::.cpu.data     41288606                       # number of WriteReq accesses(hits+misses)
system.cpu.dcache.WriteReq_accesses::total     41288606                       # number of WriteReq accesses(hits+misses)
system.cpu.dcache.WriteReq_miss_rate::.cpu.data     0.057842                       # miss rate for WriteReq accesses
system.cpu.dcache.WriteReq_miss_rate::total     0.057842                       # miss rate for WriteReq accesses
system.cpu.dcache.WriteReq_avg_miss_latency::.cpu.data 62053.454352                       # average WriteReq miss latency
system.cpu.dcache.WriteReq_avg_miss_latency::total 62053.454352                       # average WriteReq miss latency
system.cpu.dcache.WriteReq_mshr_hits::.cpu.data      1075869                       # number of WriteReq MSHR hits
system.cpu.dcache.WriteReq_mshr_hits::total      1075869                       # number of WriteReq MSHR hits
system.cpu.dcache.WriteReq_mshr_misses::.cpu.data      1312365                       # number of WriteReq MSHR misses
system.cpu.dcache.WriteReq_mshr_misses::total      1312365                       # number of WriteReq MSHR misses
system.cpu.dcache.WriteReq_mshr_uncacheable::.cpu.data          887                       # number of WriteReq MSHR uncacheable
system.cpu.dcache.WriteReq_mshr_uncacheable::total          887                       # number of WriteReq MSHR uncacheable
system.cpu.dcache.WriteReq_mshr_miss_latency::.cpu.data  79221663500                       # number of WriteReq MSHR miss cycles
system.cpu.dcache.WriteReq_mshr_miss_latency::total  79221663500                       # number of WriteReq MSHR miss cycles
system.cpu.dcache.WriteReq_mshr_miss_rate::.cpu.data     0.031785                       # mshr miss rate for WriteReq accesses
system.cpu.dcache.WriteReq_mshr_miss_rate::total     0.031785                       # mshr miss rate for WriteReq accesses
system.cpu.dcache.WriteReq_avg_mshr_miss_latency::.cpu.data 60365.571697                       # average WriteReq mshr miss latency
system.cpu.dcache.WriteReq_avg_mshr_miss_latency::total 60365.571697                       # average WriteReq mshr miss latency
system.cpu.dcache.LoadLockedReq_hits::.cpu.data        77236                       # number of LoadLockedReq hits
system.cpu.dcache.LoadLockedReq_hits::total        77236                       # number of LoadLockedReq hits
system.cpu.dcache.LoadLockedReq_misses::.cpu.data         3358                       # number of LoadLockedReq misses
system.cpu.dcache.LoadLockedReq_misses::total         3358                       # number of LoadLockedReq misses
system.cpu.dcache.LoadLockedReq_miss_latency::.cpu.data    256578000                       # number of LoadLockedReq miss cycles
system.cpu.dcache.LoadLockedReq_miss_latency::total    256578000                       # number of LoadLockedReq miss cycles
system.cpu.dcache.LoadLockedReq_accesses::.cpu.data        80594                       # number of LoadLockedReq accesses(hits+misses)
system.cpu.dcache.LoadLockedReq_accesses::total        80594                       # number of LoadLockedReq accesses(hits+misses)
system.cpu.dcache.LoadLockedReq_miss_rate::.cpu.data     0.041666                       # miss rate for LoadLockedReq accesses
system.cpu.dcache.LoadLockedReq_miss_rate::total     0.041666                       # miss rate for LoadLockedReq accesses
system.cpu.dcache.LoadLockedReq_avg_miss_latency::.cpu.data 76407.980941                       # average LoadLockedReq miss latency
system.cpu.dcache.LoadLockedReq_avg_miss_latency::total 76407.980941                       # average LoadLockedReq miss latency
system.cpu.dcache.LoadLockedReq_mshr_hits::.cpu.data            1                       # number of LoadLockedReq MSHR hits
system.cpu.dcache.LoadLockedReq_mshr_hits::total            1                       # number of LoadLockedReq MSHR hits
system.cpu.dcache.LoadLockedReq_mshr_misses::.cpu.data         3357                       # number of LoadLockedReq MSHR misses
system.cpu.dcache.LoadLockedReq_mshr_misses::total         3357                       # number of LoadLockedReq MSHR misses
system.cpu.dcache.LoadLockedReq_mshr_miss_latency::.cpu.data    253164000                       # number of LoadLockedReq MSHR miss cycles
system.cpu.dcache.LoadLockedReq_mshr_miss_latency::total    253164000                       # number of LoadLockedReq MSHR miss cycles
system.cpu.dcache.LoadLockedReq_mshr_miss_rate::.cpu.data     0.041653                       # mshr miss rate for LoadLockedReq accesses
system.cpu.dcache.LoadLockedReq_mshr_miss_rate::total     0.041653                       # mshr miss rate for LoadLockedReq accesses
system.cpu.dcache.LoadLockedReq_avg_mshr_miss_latency::.cpu.data 75413.762288                       # average LoadLockedReq mshr miss latency
system.cpu.dcache.LoadLockedReq_avg_mshr_miss_latency::total 75413.762288                       # average LoadLockedReq mshr miss latency
system.cpu.dcache.StoreCondReq_hits::.cpu.data        80479                       # number of StoreCondReq hits
system.cpu.dcache.StoreCondReq_hits::total        80479                       # number of StoreCondReq hits
system.cpu.dcache.StoreCondReq_accesses::.cpu.data        80479                       # number of StoreCondReq accesses(hits+misses)
system.cpu.dcache.StoreCondReq_accesses::total        80479                       # number of StoreCondReq accesses(hits+misses)
system.cpu.dcache.tags.pwrStateResidencyTicks::UNDEFINED 506569006000                       # Cumulative time (in ticks) in various power states
system.cpu.dcache.tags.tagsinuse                 1024                       # Cycle average of tags in use
system.cpu.dcache.tags.total_refs           128266984                       # Total number of references to valid blocks.
system.cpu.dcache.tags.sampled_refs           3100222                       # Sample count of references to valid blocks.
system.cpu.dcache.tags.avg_refs             41.373484                       # Average number of references to valid blocks.
system.cpu.dcache.tags.warmup_cycle                 0                       # Cycle when the warmup percentage was hit.
system.cpu.dcache.tags.occ_blocks::.cpu.data         1024                       # Average occupied blocks per requestor
system.cpu.dcache.tags.occ_percent::.cpu.data            1                       # Average percentage of cache occupancy
system.cpu.dcache.tags.occ_percent::total            1                       # Average percentage of cache occupancy
system.cpu.dcache.tags.occ_task_id_blocks::1024         1024                       # Occupied blocks per task id
system.cpu.dcache.tags.age_task_id_blocks_1024::0            9                       # Occupied blocks per task id
system.cpu.dcache.tags.age_task_id_blocks_1024::1           84                       # Occupied blocks per task id
system.cpu.dcache.tags.age_task_id_blocks_1024::2          834                       # Occupied blocks per task id
system.cpu.dcache.tags.age_task_id_blocks_1024::3           97                       # Occupied blocks per task id
system.cpu.dcache.tags.occ_task_id_percent::1024            1                       # Percentage of cache occupancy per task id
system.cpu.dcache.tags.tag_accesses         261473766                       # Number of tag accesses
system.cpu.dcache.tags.data_accesses        261473766                       # Number of data accesses

---------- End Simulation Statistics   ----------
