
---------- Begin Simulation Statistics ----------
final_tick                               2541822632500                       # Number of ticks from beginning of simulation (restored from checkpoints and never reset)
host_inst_rate                                 204740                       # Simulator instruction rate (inst/s)
host_mem_usage                                 744068                       # Number of bytes of host memory used
host_op_rate                                   204739                       # Simulator op (including micro ops) rate (op/s)
host_seconds                                    20.51                       # Real time elapsed on the host
host_tick_rate                              576083484                       # Simulator tick rate (ticks/s)
sim_freq                                 1000000000000                       # Frequency of simulated ticks
sim_insts                                     4198234                       # Number of instructions simulated
sim_ops                                       4198234                       # Number of ops (including micro ops) simulated
sim_seconds                                  0.011813                       # Number of seconds simulated
sim_ticks                                 11812787500                       # Number of ticks simulated
system.cpu.branchPred.BTBCorrect                    0                       # Number of correct BTB predictions (this stat may not work properly.
system.cpu.branchPred.BTBHitPct             44.623001                       # BTB Hit Percentage
system.cpu.branchPred.BTBHits                  377669                       # Number of BTB hits
system.cpu.branchPred.BTBLookups               846355                       # Number of BTB lookups
system.cpu.branchPred.RASInCorrect               2415                       # Number of incorrect RAS predictions.
system.cpu.branchPred.condIncorrect             74332                       # Number of conditional branches incorrect
system.cpu.branchPred.condPredicted            802279                       # Number of conditional branches predicted
system.cpu.branchPred.indirectHits              53241                       # Number of indirect target hits.
system.cpu.branchPred.indirectLookups          278872                       # Number of indirect predictor lookups.
system.cpu.branchPred.indirectMisses           225631                       # Number of indirect misses.
system.cpu.branchPred.lookups                  973809                       # Number of BP lookups
system.cpu.branchPred.usedRAS                   63853                       # Number of times the RAS was used to get a target.
system.cpu.branchPredindirectMispredicted        26584                       # Number of mispredicted indirect branches.
system.cpu.committedInsts                     4198234                       # Number of instructions committed
system.cpu.committedOps                       4198234                       # Number of ops (including micro ops) committed
system.cpu.cpi                               5.624258                       # CPI: cycles per instruction
system.cpu.discardedOps                        187670                       # Number of ops (including micro ops) which were discarded before commit
system.cpu.dtb.data_accesses                   607859                       # DTB accesses
system.cpu.dtb.data_acv                           131                       # DTB access violations
system.cpu.dtb.data_hits                      1452285                       # DTB hits
system.cpu.dtb.data_misses                       7696                       # DTB misses
system.cpu.dtb.fetch_accesses                       0                       # ITB accesses
system.cpu.dtb.fetch_acv                            0                       # ITB acv
system.cpu.dtb.fetch_hits                           0                       # ITB hits
system.cpu.dtb.fetch_misses                         0                       # ITB misses
system.cpu.dtb.read_accesses                   405934                       # DTB read accesses
system.cpu.dtb.read_acv                            43                       # DTB read access violations
system.cpu.dtb.read_hits                       849166                       # DTB read hits
system.cpu.dtb.read_misses                       6904                       # DTB read misses
system.cpu.dtb.write_accesses                  201925                       # DTB write accesses
system.cpu.dtb.write_acv                           88                       # DTB write access violations
system.cpu.dtb.write_hits                      603119                       # DTB write hits
system.cpu.dtb.write_misses                       792                       # DTB write misses
system.cpu.fetch2.amo_instructions                  0                       # Number of memory atomic instructions successfully decoded
system.cpu.fetch2.fp_instructions               18026                       # Number of floating point instructions successfully decoded
system.cpu.fetch2.int_instructions            3371680                       # Number of integer instructions successfully decoded
system.cpu.fetch2.load_instructions           1026183                       # Number of memory load instructions successfully decoded
system.cpu.fetch2.store_instructions           658419                       # Number of memory store instructions successfully decoded
system.cpu.fetch2.vec_instructions                  0                       # Number of SIMD instructions successfully decoded
system.cpu.idleCycles                        16721548                       # Total number of cycles that the object has spent stopped
system.cpu.ipc                               0.177801                       # IPC: instructions per cycle
system.cpu.itb.data_accesses                        0                       # DTB accesses
system.cpu.itb.data_acv                             0                       # DTB access violations
system.cpu.itb.data_hits                            0                       # DTB hits
system.cpu.itb.data_misses                          0                       # DTB misses
system.cpu.itb.fetch_accesses                  954173                       # ITB accesses
system.cpu.itb.fetch_acv                          809                       # ITB acv
system.cpu.itb.fetch_hits                      947666                       # ITB hits
system.cpu.itb.fetch_misses                      6507                       # ITB misses
system.cpu.itb.read_accesses                        0                       # DTB read accesses
system.cpu.itb.read_acv                             0                       # DTB read access violations
system.cpu.itb.read_hits                            0                       # DTB read hits
system.cpu.itb.read_misses                          0                       # DTB read misses
system.cpu.itb.write_accesses                       0                       # DTB write accesses
system.cpu.itb.write_acv                            0                       # DTB write access violations
system.cpu.itb.write_hits                           0                       # DTB write hits
system.cpu.itb.write_misses                         0                       # DTB write misses
system.cpu.kern.callpal::swpctx                   574      9.45%      9.45% # number of callpals executed
system.cpu.kern.callpal::tbi                       25      0.41%      9.86% # number of callpals executed
system.cpu.kern.callpal::swpipl                  4213     69.34%     79.20% # number of callpals executed
system.cpu.kern.callpal::rdps                      48      0.79%     79.99% # number of callpals executed
system.cpu.kern.callpal::wrusp                      4      0.07%     80.05% # number of callpals executed
system.cpu.kern.callpal::rdusp                      3      0.05%     80.10% # number of callpals executed
system.cpu.kern.callpal::rti                      896     14.75%     94.85% # number of callpals executed
system.cpu.kern.callpal::callsys                  235      3.87%     98.72% # number of callpals executed
system.cpu.kern.callpal::imb                       78      1.28%    100.00% # number of callpals executed
system.cpu.kern.callpal::total                   6076                       # number of callpals executed
system.cpu.kern.inst.arm                            0                       # number of arm instructions executed
system.cpu.kern.inst.hwrei                      14419                       # number of hwrei instructions executed
system.cpu.kern.inst.quiesce                        9                       # number of quiesce instructions executed
system.cpu.kern.ipl_count::0                     2431     47.42%     47.42% # number of times we switched to this ipl
system.cpu.kern.ipl_count::21                       5      0.10%     47.52% # number of times we switched to this ipl
system.cpu.kern.ipl_count::22                      12      0.23%     47.76% # number of times we switched to this ipl
system.cpu.kern.ipl_count::31                    2678     52.24%    100.00% # number of times we switched to this ipl
system.cpu.kern.ipl_count::total                 5126                       # number of times we switched to this ipl
system.cpu.kern.ipl_good::0                      2418     49.82%     49.82% # number of times we switched to this ipl from a different ipl
system.cpu.kern.ipl_good::21                        5      0.10%     49.93% # number of times we switched to this ipl from a different ipl
system.cpu.kern.ipl_good::22                       12      0.25%     50.18% # number of times we switched to this ipl from a different ipl
system.cpu.kern.ipl_good::31                     2418     49.82%    100.00% # number of times we switched to this ipl from a different ipl
system.cpu.kern.ipl_good::total                  4853                       # number of times we switched to this ipl from a different ipl
system.cpu.kern.ipl_ticks::0              10907837000     92.31%     92.31% # number of cycles we spent at this ipl
system.cpu.kern.ipl_ticks::21                 9058500      0.08%     92.38% # number of cycles we spent at this ipl
system.cpu.kern.ipl_ticks::22                17776000      0.15%     92.53% # number of cycles we spent at this ipl
system.cpu.kern.ipl_ticks::31               882229500      7.47%    100.00% # number of cycles we spent at this ipl
system.cpu.kern.ipl_ticks::total          11816901000                       # number of cycles we spent at this ipl
system.cpu.kern.ipl_used::0                  0.994652                       # fraction of swpipl calls that actually changed the ipl
system.cpu.kern.ipl_used::21                        1                       # fraction of swpipl calls that actually changed the ipl
system.cpu.kern.ipl_used::22                        1                       # fraction of swpipl calls that actually changed the ipl
system.cpu.kern.ipl_used::31                 0.902913                       # fraction of swpipl calls that actually changed the ipl
system.cpu.kern.ipl_used::total              0.946742                       # fraction of swpipl calls that actually changed the ipl
system.cpu.kern.mode_good::kernel                 870                      
system.cpu.kern.mode_good::user                   870                      
system.cpu.kern.mode_good::idle                     0                      
system.cpu.kern.mode_switch::kernel              1470                       # number of protection mode switches
system.cpu.kern.mode_switch::user                 870                       # number of protection mode switches
system.cpu.kern.mode_switch::idle                   0                       # number of protection mode switches
system.cpu.kern.mode_switch_good::kernel     0.591837                       # fraction of useful protection mode switches
system.cpu.kern.mode_switch_good::user              1                       # fraction of useful protection mode switches
system.cpu.kern.mode_switch_good::idle            nan                       # fraction of useful protection mode switches
system.cpu.kern.mode_switch_good::total      0.743590                       # fraction of useful protection mode switches
system.cpu.kern.mode_ticks::kernel         7977434500     67.51%     67.51% # number of ticks spent at the given mode
system.cpu.kern.mode_ticks::user           3839466500     32.49%    100.00% # number of ticks spent at the given mode
system.cpu.kern.mode_ticks::idle                    0      0.00%    100.00% # number of ticks spent at the given mode
system.cpu.kern.swap_context                      574                       # number of times the context was actually changed
system.cpu.numCycles                         23611951                       # number of cpu cycles simulated
system.cpu.numFetchSuspends                         9                       # Number of times Execute suspended instruction fetching
system.cpu.numWorkItemsCompleted                    0                       # number of work items this cpu completed
system.cpu.numWorkItemsStarted                      0                       # number of work items this cpu started
system.cpu.op_class_0::No_OpClass               85456      2.04%      2.04% # Class of committed instruction
system.cpu.op_class_0::IntAlu                 2542706     60.57%     62.60% # Class of committed instruction
system.cpu.op_class_0::IntMult                   3673      0.09%     62.69% # Class of committed instruction
system.cpu.op_class_0::IntDiv                       0      0.00%     62.69% # Class of committed instruction
system.cpu.op_class_0::FloatAdd                  8286      0.20%     62.89% # Class of committed instruction
system.cpu.op_class_0::FloatCmp                     0      0.00%     62.89% # Class of committed instruction
system.cpu.op_class_0::FloatCvt                     0      0.00%     62.89% # Class of committed instruction
system.cpu.op_class_0::FloatMult                    0      0.00%     62.89% # Class of committed instruction
system.cpu.op_class_0::FloatMultAcc                 0      0.00%     62.89% # Class of committed instruction
system.cpu.op_class_0::FloatDiv                  1593      0.04%     62.92% # Class of committed instruction
system.cpu.op_class_0::FloatMisc                    0      0.00%     62.92% # Class of committed instruction
system.cpu.op_class_0::FloatSqrt                    0      0.00%     62.92% # Class of committed instruction
system.cpu.op_class_0::SimdAdd                      0      0.00%     62.92% # Class of committed instruction
system.cpu.op_class_0::SimdAddAcc                   0      0.00%     62.92% # Class of committed instruction
system.cpu.op_class_0::SimdAlu                      0      0.00%     62.92% # Class of committed instruction
system.cpu.op_class_0::SimdCmp                      0      0.00%     62.92% # Class of committed instruction
system.cpu.op_class_0::SimdCvt                      0      0.00%     62.92% # Class of committed instruction
system.cpu.op_class_0::SimdMisc                     0      0.00%     62.92% # Class of committed instruction
system.cpu.op_class_0::SimdMult                     0      0.00%     62.92% # Class of committed instruction
system.cpu.op_class_0::SimdMultAcc                  0      0.00%     62.92% # Class of committed instruction
system.cpu.op_class_0::SimdShift                    0      0.00%     62.92% # Class of committed instruction
system.cpu.op_class_0::SimdShiftAcc                 0      0.00%     62.92% # Class of committed instruction
system.cpu.op_class_0::SimdDiv                      0      0.00%     62.92% # Class of committed instruction
system.cpu.op_class_0::SimdSqrt                     0      0.00%     62.92% # Class of committed instruction
system.cpu.op_class_0::SimdFloatAdd                 0      0.00%     62.92% # Class of committed instruction
system.cpu.op_class_0::SimdFloatAlu                 0      0.00%     62.92% # Class of committed instruction
system.cpu.op_class_0::SimdFloatCmp                 0      0.00%     62.92% # Class of committed instruction
system.cpu.op_class_0::SimdFloatCvt                 0      0.00%     62.92% # Class of committed instruction
system.cpu.op_class_0::SimdFloatDiv                 0      0.00%     62.92% # Class of committed instruction
system.cpu.op_class_0::SimdFloatMisc                0      0.00%     62.92% # Class of committed instruction
system.cpu.op_class_0::SimdFloatMult                0      0.00%     62.92% # Class of committed instruction
system.cpu.op_class_0::SimdFloatMultAcc             0      0.00%     62.92% # Class of committed instruction
system.cpu.op_class_0::SimdFloatSqrt                0      0.00%     62.92% # Class of committed instruction
system.cpu.op_class_0::SimdReduceAdd                0      0.00%     62.92% # Class of committed instruction
system.cpu.op_class_0::SimdReduceAlu                0      0.00%     62.92% # Class of committed instruction
system.cpu.op_class_0::SimdReduceCmp                0      0.00%     62.92% # Class of committed instruction
system.cpu.op_class_0::SimdFloatReduceAdd            0      0.00%     62.92% # Class of committed instruction
system.cpu.op_class_0::SimdFloatReduceCmp            0      0.00%     62.92% # Class of committed instruction
system.cpu.op_class_0::SimdAes                      0      0.00%     62.92% # Class of committed instruction
system.cpu.op_class_0::SimdAesMix                   0      0.00%     62.92% # Class of committed instruction
system.cpu.op_class_0::SimdSha1Hash                 0      0.00%     62.92% # Class of committed instruction
system.cpu.op_class_0::SimdSha1Hash2                0      0.00%     62.92% # Class of committed instruction
system.cpu.op_class_0::SimdSha256Hash               0      0.00%     62.92% # Class of committed instruction
system.cpu.op_class_0::SimdSha256Hash2              0      0.00%     62.92% # Class of committed instruction
system.cpu.op_class_0::SimdShaSigma2                0      0.00%     62.92% # Class of committed instruction
system.cpu.op_class_0::SimdShaSigma3                0      0.00%     62.92% # Class of committed instruction
system.cpu.op_class_0::SimdPredAlu                  0      0.00%     62.92% # Class of committed instruction
system.cpu.op_class_0::MemRead                 839902     20.01%     82.93% # Class of committed instruction
system.cpu.op_class_0::MemWrite                593015     14.13%     97.06% # Class of committed instruction
system.cpu.op_class_0::FloatMemRead              9988      0.24%     97.29% # Class of committed instruction
system.cpu.op_class_0::FloatMemWrite             8788      0.21%     97.50% # Class of committed instruction
system.cpu.op_class_0::IprAccess               104827      2.50%    100.00% # Class of committed instruction
system.cpu.op_class_0::InstPrefetch                 0      0.00%    100.00% # Class of committed instruction
system.cpu.op_class_0::total                  4198234                       # Class of committed instruction
system.cpu.quiesceCycles                        13624                       # Total number of cycles that CPU has spent quiesced or waiting for an interrupt
system.cpu.tickCycles                         6890403                       # Number of cycles that the object actually ticked
system.disk0.dma_read_bytes                         0                       # Number of bytes transfered via DMA reads (not PRD).
system.disk0.dma_read_full_pages                    0                       # Number of full page size DMA reads (not PRD).
system.disk0.dma_read_txs                           0                       # Number of DMA read transactions (not PRD).
system.disk0.dma_write_bytes                    12288                       # Number of bytes transfered via DMA writes.
system.disk0.dma_write_full_pages                   0                       # Number of full page size DMA writes.
system.disk0.dma_write_txs                          3                       # Number of DMA write transactions.
system.disk2.dma_read_bytes                         0                       # Number of bytes transfered via DMA reads (not PRD).
system.disk2.dma_read_full_pages                    0                       # Number of full page size DMA reads (not PRD).
system.disk2.dma_read_txs                           0                       # Number of DMA read transactions (not PRD).
system.disk2.dma_write_bytes                        0                       # Number of bytes transfered via DMA writes.
system.disk2.dma_write_full_pages                   0                       # Number of full page size DMA writes.
system.disk2.dma_write_txs                          0                       # Number of DMA write transactions.
system.membus.snoop_filter.hit_multi_requests          436                       # Number of requests hitting in the snoop filter with multiple (>1) holders of the requested data.
system.membus.snoop_filter.hit_multi_snoops            0                       # Number of snoops hitting in the snoop filter with multiple (>1) holders of the requested data.
system.membus.snoop_filter.hit_single_requests       155488                       # Number of requests hitting in the snoop filter with a single holder of the requested data.
system.membus.snoop_filter.hit_single_snoops            0                       # Number of snoops hitting in the snoop filter with a single holder of the requested data.
system.membus.snoop_filter.tot_requests        312581                       # Total number of requests made to the snoop filter.
system.membus.snoop_filter.tot_snoops               0                       # Total number of snoops made to the snoop filter.
system.tsunami.ethernet.coalescedRxDesc           nan                       # average number of RxDesc's coalesced into each post
system.tsunami.ethernet.coalescedRxIdle           nan                       # average number of RxIdle's coalesced into each post
system.tsunami.ethernet.coalescedRxOk             nan                       # average number of RxOk's coalesced into each post
system.tsunami.ethernet.coalescedRxOrn            nan                       # average number of RxOrn's coalesced into each post
system.tsunami.ethernet.coalescedSwi              nan                       # average number of Swi's coalesced into each post
system.tsunami.ethernet.coalescedTotal            nan                       # average number of interrupts coalesced into each post
system.tsunami.ethernet.coalescedTxDesc           nan                       # average number of TxDesc's coalesced into each post
system.tsunami.ethernet.coalescedTxIdle           nan                       # average number of TxIdle's coalesced into each post
system.tsunami.ethernet.coalescedTxOk             nan                       # average number of TxOk's coalesced into each post
system.tsunami.ethernet.descDMAReads                0                       # Number of descriptors the device read w/ DMA
system.tsunami.ethernet.descDMAWrites               0                       # Number of descriptors the device wrote w/ DMA
system.tsunami.ethernet.descDmaReadBytes            0                       # number of descriptor bytes read w/ DMA
system.tsunami.ethernet.descDmaWriteBytes            0                       # number of descriptor bytes write w/ DMA
system.tsunami.ethernet.droppedPackets              0                       # number of packets dropped
system.tsunami.ethernet.postedInterrupts            0                       # number of posts to CPU
system.tsunami.ethernet.postedRxDesc                0                       # number of RxDesc interrupts posted to CPU
system.tsunami.ethernet.postedRxIdle                0                       # number of rxIdle interrupts posted to CPU
system.tsunami.ethernet.postedRxOk                  0                       # number of RxOk interrupts posted to CPU
system.tsunami.ethernet.postedRxOrn                 0                       # number of RxOrn posted to CPU
system.tsunami.ethernet.postedSwi                   0                       # number of software interrupts posted to CPU
system.tsunami.ethernet.postedTxDesc                0                       # number of TxDesc interrupts posted to CPU
system.tsunami.ethernet.postedTxIdle                0                       # number of TxIdle interrupts posted to CPU
system.tsunami.ethernet.postedTxOk                  0                       # number of TxOk interrupts posted to CPU
system.tsunami.ethernet.totalRxDesc                 0                       # total number of RxDesc written to ISR
system.tsunami.ethernet.totalRxIdle                 0                       # total number of RxIdle written to ISR
system.tsunami.ethernet.totalRxOk                   0                       # total number of RxOk written to ISR
system.tsunami.ethernet.totalRxOrn                  0                       # total number of RxOrn written to ISR
system.tsunami.ethernet.totalSwi                    0                       # total number of Swi written to ISR
system.tsunami.ethernet.totalTxDesc                 0                       # total number of TxDesc written to ISR
system.tsunami.ethernet.totalTxIdle                 0                       # total number of TxIdle written to ISR
system.tsunami.ethernet.totalTxOk                   0                       # total number of TxOk written to ISR
system.bridge.pwrStateResidencyTicks::UNDEFINED 2541822632500                       # Cumulative time (in ticks) in various power states
system.voltage_domain.voltage                       1                       # Voltage in Volts
system.iocache.pwrStateResidencyTicks::UNDEFINED 2541822632500                       # Cumulative time (in ticks) in various power states
system.iocache.demand_misses::.tsunami.ide          195                       # number of demand (read+write) misses
system.iocache.demand_misses::total               195                       # number of demand (read+write) misses
system.iocache.overall_misses::.tsunami.ide          195                       # number of overall misses
system.iocache.overall_misses::total              195                       # number of overall misses
system.iocache.demand_miss_latency::.tsunami.ide     22809454                       # number of demand (read+write) miss cycles
system.iocache.demand_miss_latency::total     22809454                       # number of demand (read+write) miss cycles
system.iocache.overall_miss_latency::.tsunami.ide     22809454                       # number of overall miss cycles
system.iocache.overall_miss_latency::total     22809454                       # number of overall miss cycles
system.iocache.demand_accesses::.tsunami.ide          195                       # number of demand (read+write) accesses
system.iocache.demand_accesses::total             195                       # number of demand (read+write) accesses
system.iocache.overall_accesses::.tsunami.ide          195                       # number of overall (read+write) accesses
system.iocache.overall_accesses::total            195                       # number of overall (read+write) accesses
system.iocache.demand_miss_rate::.tsunami.ide            1                       # miss rate for demand accesses
system.iocache.demand_miss_rate::total              1                       # miss rate for demand accesses
system.iocache.overall_miss_rate::.tsunami.ide            1                       # miss rate for overall accesses
system.iocache.overall_miss_rate::total             1                       # miss rate for overall accesses
system.iocache.demand_avg_miss_latency::.tsunami.ide 116971.558974                       # average overall miss latency
system.iocache.demand_avg_miss_latency::total 116971.558974                       # average overall miss latency
system.iocache.overall_avg_miss_latency::.tsunami.ide 116971.558974                       # average overall miss latency
system.iocache.overall_avg_miss_latency::total 116971.558974                       # average overall miss latency
system.iocache.blocked_cycles::no_mshrs             0                       # number of cycles access was blocked
system.iocache.blocked_cycles::no_targets            0                       # number of cycles access was blocked
system.iocache.blocked::no_mshrs                    0                       # number of cycles access was blocked
system.iocache.blocked::no_targets                  0                       # number of cycles access was blocked
system.iocache.avg_blocked_cycles::no_mshrs          nan                       # average number of cycles each access was blocked
system.iocache.avg_blocked_cycles::no_targets          nan                       # average number of cycles each access was blocked
system.iocache.writebacks::.writebacks            176                       # number of writebacks
system.iocache.writebacks::total                  176                       # number of writebacks
system.iocache.demand_mshr_misses::.tsunami.ide          195                       # number of demand (read+write) MSHR misses
system.iocache.demand_mshr_misses::total          195                       # number of demand (read+write) MSHR misses
system.iocache.overall_mshr_misses::.tsunami.ide          195                       # number of overall MSHR misses
system.iocache.overall_mshr_misses::total          195                       # number of overall MSHR misses
system.iocache.demand_mshr_miss_latency::.tsunami.ide     13044490                       # number of demand (read+write) MSHR miss cycles
system.iocache.demand_mshr_miss_latency::total     13044490                       # number of demand (read+write) MSHR miss cycles
system.iocache.overall_mshr_miss_latency::.tsunami.ide     13044490                       # number of overall MSHR miss cycles
system.iocache.overall_mshr_miss_latency::total     13044490                       # number of overall MSHR miss cycles
system.iocache.demand_mshr_miss_rate::.tsunami.ide            1                       # mshr miss rate for demand accesses
system.iocache.demand_mshr_miss_rate::total            1                       # mshr miss rate for demand accesses
system.iocache.overall_mshr_miss_rate::.tsunami.ide            1                       # mshr miss rate for overall accesses
system.iocache.overall_mshr_miss_rate::total            1                       # mshr miss rate for overall accesses
system.iocache.demand_avg_mshr_miss_latency::.tsunami.ide 66894.820513                       # average overall mshr miss latency
system.iocache.demand_avg_mshr_miss_latency::total 66894.820513                       # average overall mshr miss latency
system.iocache.overall_avg_mshr_miss_latency::.tsunami.ide 66894.820513                       # average overall mshr miss latency
system.iocache.overall_avg_mshr_miss_latency::total 66894.820513                       # average overall mshr miss latency
system.iocache.replacements                       179                       # number of replacements
system.iocache.ReadReq_misses::.tsunami.ide            3                       # number of ReadReq misses
system.iocache.ReadReq_misses::total                3                       # number of ReadReq misses
system.iocache.ReadReq_miss_latency::.tsunami.ide       349497                       # number of ReadReq miss cycles
system.iocache.ReadReq_miss_latency::total       349497                       # number of ReadReq miss cycles
system.iocache.ReadReq_accesses::.tsunami.ide            3                       # number of ReadReq accesses(hits+misses)
system.iocache.ReadReq_accesses::total              3                       # number of ReadReq accesses(hits+misses)
system.iocache.ReadReq_miss_rate::.tsunami.ide            1                       # miss rate for ReadReq accesses
system.iocache.ReadReq_miss_rate::total             1                       # miss rate for ReadReq accesses
system.iocache.ReadReq_avg_miss_latency::.tsunami.ide       116499                       # average ReadReq miss latency
system.iocache.ReadReq_avg_miss_latency::total       116499                       # average ReadReq miss latency
system.iocache.ReadReq_mshr_misses::.tsunami.ide            3                       # number of ReadReq MSHR misses
system.iocache.ReadReq_mshr_misses::total            3                       # number of ReadReq MSHR misses
system.iocache.ReadReq_mshr_miss_latency::.tsunami.ide       199497                       # number of ReadReq MSHR miss cycles
system.iocache.ReadReq_mshr_miss_latency::total       199497                       # number of ReadReq MSHR miss cycles
system.iocache.ReadReq_mshr_miss_rate::.tsunami.ide            1                       # mshr miss rate for ReadReq accesses
system.iocache.ReadReq_mshr_miss_rate::total            1                       # mshr miss rate for ReadReq accesses
system.iocache.ReadReq_avg_mshr_miss_latency::.tsunami.ide        66499                       # average ReadReq mshr miss latency
system.iocache.ReadReq_avg_mshr_miss_latency::total        66499                       # average ReadReq mshr miss latency
system.iocache.WriteLineReq_misses::.tsunami.ide          192                       # number of WriteLineReq misses
system.iocache.WriteLineReq_misses::total          192                       # number of WriteLineReq misses
system.iocache.WriteLineReq_miss_latency::.tsunami.ide     22459957                       # number of WriteLineReq miss cycles
system.iocache.WriteLineReq_miss_latency::total     22459957                       # number of WriteLineReq miss cycles
system.iocache.WriteLineReq_accesses::.tsunami.ide          192                       # number of WriteLineReq accesses(hits+misses)
system.iocache.WriteLineReq_accesses::total          192                       # number of WriteLineReq accesses(hits+misses)
system.iocache.WriteLineReq_miss_rate::.tsunami.ide            1                       # miss rate for WriteLineReq accesses
system.iocache.WriteLineReq_miss_rate::total            1                       # miss rate for WriteLineReq accesses
system.iocache.WriteLineReq_avg_miss_latency::.tsunami.ide 116978.942708                       # average WriteLineReq miss latency
system.iocache.WriteLineReq_avg_miss_latency::total 116978.942708                       # average WriteLineReq miss latency
system.iocache.WriteLineReq_mshr_misses::.tsunami.ide          192                       # number of WriteLineReq MSHR misses
system.iocache.WriteLineReq_mshr_misses::total          192                       # number of WriteLineReq MSHR misses
system.iocache.WriteLineReq_mshr_miss_latency::.tsunami.ide     12844993                       # number of WriteLineReq MSHR miss cycles
system.iocache.WriteLineReq_mshr_miss_latency::total     12844993                       # number of WriteLineReq MSHR miss cycles
system.iocache.WriteLineReq_mshr_miss_rate::.tsunami.ide            1                       # mshr miss rate for WriteLineReq accesses
system.iocache.WriteLineReq_mshr_miss_rate::total            1                       # mshr miss rate for WriteLineReq accesses
system.iocache.WriteLineReq_avg_mshr_miss_latency::.tsunami.ide 66901.005208                       # average WriteLineReq mshr miss latency
system.iocache.WriteLineReq_avg_mshr_miss_latency::total 66901.005208                       # average WriteLineReq mshr miss latency
system.iocache.tags.pwrStateResidencyTicks::UNDEFINED 2541822632500                       # Cumulative time (in ticks) in various power states
system.iocache.tags.tagsinuse                3.269518                       # Cycle average of tags in use
system.iocache.tags.total_refs                    179                       # Total number of references to valid blocks.
system.iocache.tags.sampled_refs                  179                       # Sample count of references to valid blocks.
system.iocache.tags.avg_refs                        1                       # Average number of references to valid blocks.
system.iocache.tags.warmup_cycle         2539407672000                       # Cycle when the warmup percentage was hit.
system.iocache.tags.occ_blocks::.tsunami.ide     3.269518                       # Average occupied blocks per requestor
system.iocache.tags.occ_percent::.tsunami.ide     0.204345                       # Average percentage of cache occupancy
system.iocache.tags.occ_percent::total       0.204345                       # Average percentage of cache occupancy
system.iocache.tags.occ_task_id_blocks::1023           16                       # Occupied blocks per task id
system.iocache.tags.age_task_id_blocks_1023::3           16                       # Occupied blocks per task id
system.iocache.tags.occ_task_id_percent::1023            1                       # Percentage of cache occupancy per task id
system.iocache.tags.tag_accesses                 1755                       # Number of tag accesses
system.iocache.tags.data_accesses                1755                       # Number of data accesses
system.membus.pwrStateResidencyTicks::UNDEFINED 2541822632500                       # Cumulative time (in ticks) in various power states
system.membus.trans_dist::ReadReq                 108                       # Transaction distribution
system.membus.trans_dist::ReadResp             128011                       # Transaction distribution
system.membus.trans_dist::WriteReq                 99                       # Transaction distribution
system.membus.trans_dist::WriteResp                99                       # Transaction distribution
system.membus.trans_dist::WritebackDirty        34840                       # Transaction distribution
system.membus.trans_dist::WritebackClean        86472                       # Transaction distribution
system.membus.trans_dist::CleanEvict            34155                       # Transaction distribution
system.membus.trans_dist::UpgradeReq               16                       # Transaction distribution
system.membus.trans_dist::ReadExReq             29002                       # Transaction distribution
system.membus.trans_dist::ReadExResp            29002                       # Transaction distribution
system.membus.trans_dist::ReadCleanReq          87062                       # Transaction distribution
system.membus.trans_dist::ReadSharedReq         40842                       # Transaction distribution
system.membus.trans_dist::BadAddressError            1                       # Transaction distribution
system.membus.trans_dist::InvalidateReq           192                       # Transaction distribution
system.membus.pkt_count_system.iocache.mem_side::system.mem_ctrls.port          374                       # Packet count per connected master and slave (bytes)
system.membus.pkt_count_system.iocache.mem_side::total          374                       # Packet count per connected master and slave (bytes)
system.membus.pkt_count_system.cpu.icache.mem_side::system.mem_ctrls.port       260534                       # Packet count per connected master and slave (bytes)
system.membus.pkt_count_system.cpu.icache.mem_side::total       260534                       # Packet count per connected master and slave (bytes)
system.membus.pkt_count_system.cpu.dcache.mem_side::system.bridge.slave          414                       # Packet count per connected master and slave (bytes)
system.membus.pkt_count_system.cpu.dcache.mem_side::system.mem_ctrls.port       208512                       # Packet count per connected master and slave (bytes)
system.membus.pkt_count_system.cpu.dcache.mem_side::system.membus.badaddr_responder.pio            2                       # Packet count per connected master and slave (bytes)
system.membus.pkt_count_system.cpu.dcache.mem_side::total       208928                       # Packet count per connected master and slave (bytes)
system.membus.pkt_count::total                 469836                       # Packet count per connected master and slave (bytes)
system.membus.pkt_size_system.iocache.mem_side::system.mem_ctrls.port        11264                       # Cumulative packet size per connected master and slave (bytes)
system.membus.pkt_size_system.iocache.mem_side::total        11264                       # Cumulative packet size per connected master and slave (bytes)
system.membus.pkt_size_system.cpu.icache.mem_side::system.mem_ctrls.port     11102208                       # Cumulative packet size per connected master and slave (bytes)
system.membus.pkt_size_system.cpu.icache.mem_side::total     11102208                       # Cumulative packet size per connected master and slave (bytes)
system.membus.pkt_size_system.cpu.dcache.mem_side::system.bridge.slave          433                       # Cumulative packet size per connected master and slave (bytes)
system.membus.pkt_size_system.cpu.dcache.mem_side::system.mem_ctrls.port      6688256                       # Cumulative packet size per connected master and slave (bytes)
system.membus.pkt_size_system.cpu.dcache.mem_side::total      6688689                       # Cumulative packet size per connected master and slave (bytes)
system.membus.pkt_size::total                17802161                       # Cumulative packet size per connected master and slave (bytes)
system.membus.snoops                               65                       # Total snoops (count)
system.membus.snoopTraffic                       4160                       # Total snoop traffic (bytes)
system.membus.snoop_fanout::samples            157321                       # Request fanout histogram
system.membus.snoop_fanout::mean             0.002784                       # Request fanout histogram
system.membus.snoop_fanout::stdev            0.052691                       # Request fanout histogram
system.membus.snoop_fanout::underflows              0      0.00%      0.00% # Request fanout histogram
system.membus.snoop_fanout::0                  156883     99.72%     99.72% # Request fanout histogram
system.membus.snoop_fanout::1                     438      0.28%    100.00% # Request fanout histogram
system.membus.snoop_fanout::2                       0      0.00%    100.00% # Request fanout histogram
system.membus.snoop_fanout::3                       0      0.00%    100.00% # Request fanout histogram
system.membus.snoop_fanout::overflows               0      0.00%    100.00% # Request fanout histogram
system.membus.snoop_fanout::min_value               0                       # Request fanout histogram
system.membus.snoop_fanout::max_value               1                       # Request fanout histogram
system.membus.snoop_fanout::total              157321                       # Request fanout histogram
system.membus.reqLayer0.occupancy              351000                       # Layer occupancy (ticks)
system.membus.reqLayer0.utilization               0.0                       # Layer utilization (%)
system.membus.reqLayer1.occupancy           820068039                       # Layer occupancy (ticks)
system.membus.reqLayer1.utilization               6.9                       # Layer utilization (%)
system.membus.reqLayer2.occupancy                1500                       # Layer occupancy (ticks)
system.membus.reqLayer2.utilization               0.0                       # Layer utilization (%)
system.membus.respLayer1.occupancy              17997                       # Layer occupancy (ticks)
system.membus.respLayer1.utilization              0.0                       # Layer utilization (%)
system.membus.respLayer3.occupancy          375712750                       # Layer occupancy (ticks)
system.membus.respLayer3.utilization              3.2                       # Layer utilization (%)
system.membus.badaddr_responder.pwrStateResidencyTicks::UNDEFINED 2541822632500                       # Cumulative time (in ticks) in various power states
system.membus.respLayer2.occupancy          461596000                       # Layer occupancy (ticks)
system.membus.respLayer2.utilization              3.9                       # Layer utilization (%)
system.clk_domain.clock                          1000                       # Clock period in ticks
system.tsunami.fake_uart1.pwrStateResidencyTicks::UNDEFINED 2541822632500                       # Cumulative time (in ticks) in various power states
system.tsunami.fake_uart2.pwrStateResidencyTicks::UNDEFINED 2541822632500                       # Cumulative time (in ticks) in various power states
system.tsunami.fake_uart3.pwrStateResidencyTicks::UNDEFINED 2541822632500                       # Cumulative time (in ticks) in various power states
system.tsunami.fake_uart4.pwrStateResidencyTicks::UNDEFINED 2541822632500                       # Cumulative time (in ticks) in various power states
system.tsunami.fake_ppc.pwrStateResidencyTicks::UNDEFINED 2541822632500                       # Cumulative time (in ticks) in various power states
system.tsunami.cchip.pwrStateResidencyTicks::UNDEFINED 2541822632500                       # Cumulative time (in ticks) in various power states
system.tsunami.io.pwrStateResidencyTicks::UNDEFINED 2541822632500                       # Cumulative time (in ticks) in various power states
system.tsunami.pchip.pwrStateResidencyTicks::UNDEFINED 2541822632500                       # Cumulative time (in ticks) in various power states
system.tsunami.fake_ata1.pwrStateResidencyTicks::UNDEFINED 2541822632500                       # Cumulative time (in ticks) in various power states
system.tsunami.fake_ata0.pwrStateResidencyTicks::UNDEFINED 2541822632500                       # Cumulative time (in ticks) in various power states
system.tsunami.backdoor.pwrStateResidencyTicks::UNDEFINED 2541822632500                       # Cumulative time (in ticks) in various power states
system.tsunami.fake_pnp_read3.pwrStateResidencyTicks::UNDEFINED 2541822632500                       # Cumulative time (in ticks) in various power states
system.tsunami.fake_pnp_read2.pwrStateResidencyTicks::UNDEFINED 2541822632500                       # Cumulative time (in ticks) in various power states
system.tsunami.fake_pnp_read1.pwrStateResidencyTicks::UNDEFINED 2541822632500                       # Cumulative time (in ticks) in various power states
system.tsunami.fake_pnp_read0.pwrStateResidencyTicks::UNDEFINED 2541822632500                       # Cumulative time (in ticks) in various power states
system.tsunami.fake_pnp_read7.pwrStateResidencyTicks::UNDEFINED 2541822632500                       # Cumulative time (in ticks) in various power states
system.tsunami.fake_pnp_read6.pwrStateResidencyTicks::UNDEFINED 2541822632500                       # Cumulative time (in ticks) in various power states
system.tsunami.fake_pnp_read5.pwrStateResidencyTicks::UNDEFINED 2541822632500                       # Cumulative time (in ticks) in various power states
system.tsunami.fake_pnp_read4.pwrStateResidencyTicks::UNDEFINED 2541822632500                       # Cumulative time (in ticks) in various power states
system.tsunami.fake_pnp_write.pwrStateResidencyTicks::UNDEFINED 2541822632500                       # Cumulative time (in ticks) in various power states
system.tsunami.fb.pwrStateResidencyTicks::UNDEFINED 2541822632500                       # Cumulative time (in ticks) in various power states
system.tsunami.fake_pnp_addr.pwrStateResidencyTicks::UNDEFINED 2541822632500                       # Cumulative time (in ticks) in various power states
system.tsunami.fake_OROM.pwrStateResidencyTicks::UNDEFINED 2541822632500                       # Cumulative time (in ticks) in various power states
system.tsunami.uart.pwrStateResidencyTicks::UNDEFINED 2541822632500                       # Cumulative time (in ticks) in various power states
system.tsunami.fake_sm_chip.pwrStateResidencyTicks::UNDEFINED 2541822632500                       # Cumulative time (in ticks) in various power states
system.tsunami.ethernet.pwrStateResidencyTicks::UNDEFINED 2541822632500                       # Cumulative time (in ticks) in various power states
system.tsunami.ide.pwrStateResidencyTicks::UNDEFINED 2541822632500                       # Cumulative time (in ticks) in various power states
system.cpu_voltage_domain.voltage                   1                       # Voltage in Volts
system.mem_ctrls.pwrStateResidencyTicks::UNDEFINED 2541822632500                       # Cumulative time (in ticks) in various power states
system.mem_ctrls.bytes_read::.cpu.inst        5568000                       # Number of bytes read from this memory
system.mem_ctrls.bytes_read::.cpu.data        4469760                       # Number of bytes read from this memory
system.mem_ctrls.bytes_read::total           10037760                       # Number of bytes read from this memory
system.mem_ctrls.bytes_inst_read::.cpu.inst      5568000                       # Number of instructions bytes read from this memory
system.mem_ctrls.bytes_inst_read::total       5568000                       # Number of instructions bytes read from this memory
system.mem_ctrls.bytes_written::.writebacks      2229760                       # Number of bytes written to this memory
system.mem_ctrls.bytes_written::total         2229760                       # Number of bytes written to this memory
system.mem_ctrls.num_reads::.cpu.inst           87000                       # Number of read requests responded to by this memory
system.mem_ctrls.num_reads::.cpu.data           69840                       # Number of read requests responded to by this memory
system.mem_ctrls.num_reads::total              156840                       # Number of read requests responded to by this memory
system.mem_ctrls.num_writes::.writebacks        34840                       # Number of write requests responded to by this memory
system.mem_ctrls.num_writes::total              34840                       # Number of write requests responded to by this memory
system.mem_ctrls.bw_read::.cpu.inst         471353607                       # Total read bandwidth from this memory (bytes/s)
system.mem_ctrls.bw_read::.cpu.data         378383172                       # Total read bandwidth from this memory (bytes/s)
system.mem_ctrls.bw_read::total             849736779                       # Total read bandwidth from this memory (bytes/s)
system.mem_ctrls.bw_inst_read::.cpu.inst    471353607                       # Instruction read bandwidth from this memory (bytes/s)
system.mem_ctrls.bw_inst_read::total        471353607                       # Instruction read bandwidth from this memory (bytes/s)
system.mem_ctrls.bw_write::.writebacks      188758157                       # Write bandwidth from this memory (bytes/s)
system.mem_ctrls.bw_write::total            188758157                       # Write bandwidth from this memory (bytes/s)
system.mem_ctrls.bw_total::.writebacks      188758157                       # Total bandwidth to/from this memory (bytes/s)
system.mem_ctrls.bw_total::.cpu.inst        471353607                       # Total bandwidth to/from this memory (bytes/s)
system.mem_ctrls.bw_total::.cpu.data        378383172                       # Total bandwidth to/from this memory (bytes/s)
system.mem_ctrls.bw_total::total           1038494936                       # Total bandwidth to/from this memory (bytes/s)
system.mem_ctrls.avgPriority_.writebacks::samples    118804.00                       # Average QoS priority value for accepted requests
system.mem_ctrls.avgPriority_.cpu.inst::samples     77136.00                       # Average QoS priority value for accepted requests
system.mem_ctrls.avgPriority_.cpu.data::samples     69307.00                       # Average QoS priority value for accepted requests
system.mem_ctrls.priorityMinLatency      0.000000018750                       # per QoS priority minimum request to response latency (s)
system.mem_ctrls.priorityMaxLatency      0.000168010750                       # per QoS priority maximum request to response latency (s)
system.mem_ctrls.numReadWriteTurnArounds         7310                       # Number of turnarounds from READ to WRITE
system.mem_ctrls.numWriteReadTurnArounds         7310                       # Number of turnarounds from WRITE to READ
system.mem_ctrls.numStayReadState              406185                       # Number of times bus staying in READ state
system.mem_ctrls.numStayWriteState             111578                       # Number of times bus staying in WRITE state
system.mem_ctrls.readReqs                      156840                       # Number of read requests accepted
system.mem_ctrls.writeReqs                     121096                       # Number of write requests accepted
system.mem_ctrls.readBursts                    156840                       # Number of DRAM read bursts, including those serviced by the write queue
system.mem_ctrls.writeBursts                   121096                       # Number of DRAM write bursts, including those merged in the write queue
system.mem_ctrls.servicedByWrQ                  10397                       # Number of DRAM read bursts serviced by the write queue
system.mem_ctrls.mergedWrBursts                  2292                       # Number of DRAM write bursts merged with an existing one
system.mem_ctrls.neitherReadNorWriteReqs            0                       # Number of requests that are neither read nor write
system.mem_ctrls.perBankRdBursts::0              8744                       # Per bank write bursts
system.mem_ctrls.perBankRdBursts::1              6612                       # Per bank write bursts
system.mem_ctrls.perBankRdBursts::2              9889                       # Per bank write bursts
system.mem_ctrls.perBankRdBursts::3              7139                       # Per bank write bursts
system.mem_ctrls.perBankRdBursts::4              8515                       # Per bank write bursts
system.mem_ctrls.perBankRdBursts::5             10084                       # Per bank write bursts
system.mem_ctrls.perBankRdBursts::6              8513                       # Per bank write bursts
system.mem_ctrls.perBankRdBursts::7              8657                       # Per bank write bursts
system.mem_ctrls.perBankRdBursts::8             11803                       # Per bank write bursts
system.mem_ctrls.perBankRdBursts::9              9233                       # Per bank write bursts
system.mem_ctrls.perBankRdBursts::10            10604                       # Per bank write bursts
system.mem_ctrls.perBankRdBursts::11            11994                       # Per bank write bursts
system.mem_ctrls.perBankRdBursts::12             8824                       # Per bank write bursts
system.mem_ctrls.perBankRdBursts::13            13473                       # Per bank write bursts
system.mem_ctrls.perBankRdBursts::14             5514                       # Per bank write bursts
system.mem_ctrls.perBankRdBursts::15             6845                       # Per bank write bursts
system.mem_ctrls.perBankWrBursts::0              7033                       # Per bank write bursts
system.mem_ctrls.perBankWrBursts::1              4445                       # Per bank write bursts
system.mem_ctrls.perBankWrBursts::2              8542                       # Per bank write bursts
system.mem_ctrls.perBankWrBursts::3              7958                       # Per bank write bursts
system.mem_ctrls.perBankWrBursts::4              7696                       # Per bank write bursts
system.mem_ctrls.perBankWrBursts::5              9877                       # Per bank write bursts
system.mem_ctrls.perBankWrBursts::6              7279                       # Per bank write bursts
system.mem_ctrls.perBankWrBursts::7              6852                       # Per bank write bursts
system.mem_ctrls.perBankWrBursts::8             10555                       # Per bank write bursts
system.mem_ctrls.perBankWrBursts::9              8389                       # Per bank write bursts
system.mem_ctrls.perBankWrBursts::10             7903                       # Per bank write bursts
system.mem_ctrls.perBankWrBursts::11             8022                       # Per bank write bursts
system.mem_ctrls.perBankWrBursts::12             5434                       # Per bank write bursts
system.mem_ctrls.perBankWrBursts::13             9896                       # Per bank write bursts
system.mem_ctrls.perBankWrBursts::14             3173                       # Per bank write bursts
system.mem_ctrls.perBankWrBursts::15             5725                       # Per bank write bursts
system.mem_ctrls.avgRdQLen                       1.09                       # Average read queue length when enqueuing
system.mem_ctrls.avgWrQLen                      25.69                       # Average write queue length when enqueuing
system.mem_ctrls.totQLat                   2004314250                       # Total ticks spent queuing
system.mem_ctrls.totBusLat                  732215000                       # Total ticks spent in databus transfers
system.mem_ctrls.totMemAccLat              4750120500                       # Total ticks spent from burst creation until serviced by the DRAM
system.mem_ctrls.avgQLat                     13686.65                       # Average queueing delay per DRAM burst
system.mem_ctrls.avgBusLat                    5000.00                       # Average bus latency per DRAM burst
system.mem_ctrls.avgMemAccLat                32436.65                       # Average memory access latency per DRAM burst
system.mem_ctrls.numRdRetry                         0                       # Number of times read queue was full causing retry
system.mem_ctrls.numWrRetry                         0                       # Number of times write queue was full causing retry
system.mem_ctrls.readRowHits                   103718                       # Number of row buffer hits during reads
system.mem_ctrls.writeRowHits                   80069                       # Number of row buffer hits during writes
system.mem_ctrls.readRowHitRate                 70.82                       # Row buffer hit rate for reads
system.mem_ctrls.writeRowHitRate                67.40                       # Row buffer hit rate for writes
system.mem_ctrls.readPktSize::0                     0                       # Read request sizes (log2)
system.mem_ctrls.readPktSize::1                     0                       # Read request sizes (log2)
system.mem_ctrls.readPktSize::2                     0                       # Read request sizes (log2)
system.mem_ctrls.readPktSize::3                     0                       # Read request sizes (log2)
system.mem_ctrls.readPktSize::4                     0                       # Read request sizes (log2)
system.mem_ctrls.readPktSize::5                     0                       # Read request sizes (log2)
system.mem_ctrls.readPktSize::6                156840                       # Read request sizes (log2)
system.mem_ctrls.writePktSize::0                    0                       # Write request sizes (log2)
system.mem_ctrls.writePktSize::1                    0                       # Write request sizes (log2)
system.mem_ctrls.writePktSize::2                    0                       # Write request sizes (log2)
system.mem_ctrls.writePktSize::3                    0                       # Write request sizes (log2)
system.mem_ctrls.writePktSize::4                    0                       # Write request sizes (log2)
system.mem_ctrls.writePktSize::5                    0                       # Write request sizes (log2)
system.mem_ctrls.writePktSize::6               121096                       # Write request sizes (log2)
system.mem_ctrls.rdQLenPdf::0                  134012                       # What read queue length does an incoming req see
system.mem_ctrls.rdQLenPdf::1                   12118                       # What read queue length does an incoming req see
system.mem_ctrls.rdQLenPdf::2                     313                       # What read queue length does an incoming req see
system.mem_ctrls.rdQLenPdf::3                       0                       # What read queue length does an incoming req see
system.mem_ctrls.rdQLenPdf::4                       0                       # What read queue length does an incoming req see
system.mem_ctrls.rdQLenPdf::5                       0                       # What read queue length does an incoming req see
system.mem_ctrls.rdQLenPdf::6                       0                       # What read queue length does an incoming req see
system.mem_ctrls.rdQLenPdf::7                       0                       # What read queue length does an incoming req see
system.mem_ctrls.rdQLenPdf::8                       0                       # What read queue length does an incoming req see
system.mem_ctrls.rdQLenPdf::9                       0                       # What read queue length does an incoming req see
system.mem_ctrls.rdQLenPdf::10                      0                       # What read queue length does an incoming req see
system.mem_ctrls.rdQLenPdf::11                      0                       # What read queue length does an incoming req see
system.mem_ctrls.rdQLenPdf::12                      0                       # What read queue length does an incoming req see
system.mem_ctrls.rdQLenPdf::13                      0                       # What read queue length does an incoming req see
system.mem_ctrls.rdQLenPdf::14                      0                       # What read queue length does an incoming req see
system.mem_ctrls.rdQLenPdf::15                      0                       # What read queue length does an incoming req see
system.mem_ctrls.rdQLenPdf::16                      0                       # What read queue length does an incoming req see
system.mem_ctrls.rdQLenPdf::17                      0                       # What read queue length does an incoming req see
system.mem_ctrls.rdQLenPdf::18                      0                       # What read queue length does an incoming req see
system.mem_ctrls.rdQLenPdf::19                      0                       # What read queue length does an incoming req see
system.mem_ctrls.rdQLenPdf::20                      0                       # What read queue length does an incoming req see
system.mem_ctrls.rdQLenPdf::21                      0                       # What read queue length does an incoming req see
system.mem_ctrls.rdQLenPdf::22                      0                       # What read queue length does an incoming req see
system.mem_ctrls.rdQLenPdf::23                      0                       # What read queue length does an incoming req see
system.mem_ctrls.rdQLenPdf::24                      0                       # What read queue length does an incoming req see
system.mem_ctrls.rdQLenPdf::25                      0                       # What read queue length does an incoming req see
system.mem_ctrls.rdQLenPdf::26                      0                       # What read queue length does an incoming req see
system.mem_ctrls.rdQLenPdf::27                      0                       # What read queue length does an incoming req see
system.mem_ctrls.rdQLenPdf::28                      0                       # What read queue length does an incoming req see
system.mem_ctrls.rdQLenPdf::29                      0                       # What read queue length does an incoming req see
system.mem_ctrls.rdQLenPdf::30                      0                       # What read queue length does an incoming req see
system.mem_ctrls.rdQLenPdf::31                      0                       # What read queue length does an incoming req see
system.mem_ctrls.wrQLenPdf::0                       1                       # What write queue length does an incoming req see
system.mem_ctrls.wrQLenPdf::1                       1                       # What write queue length does an incoming req see
system.mem_ctrls.wrQLenPdf::2                       1                       # What write queue length does an incoming req see
system.mem_ctrls.wrQLenPdf::3                       1                       # What write queue length does an incoming req see
system.mem_ctrls.wrQLenPdf::4                       1                       # What write queue length does an incoming req see
system.mem_ctrls.wrQLenPdf::5                       1                       # What write queue length does an incoming req see
system.mem_ctrls.wrQLenPdf::6                       1                       # What write queue length does an incoming req see
system.mem_ctrls.wrQLenPdf::7                       1                       # What write queue length does an incoming req see
system.mem_ctrls.wrQLenPdf::8                       1                       # What write queue length does an incoming req see
system.mem_ctrls.wrQLenPdf::9                       1                       # What write queue length does an incoming req see
system.mem_ctrls.wrQLenPdf::10                      1                       # What write queue length does an incoming req see
system.mem_ctrls.wrQLenPdf::11                      1                       # What write queue length does an incoming req see
system.mem_ctrls.wrQLenPdf::12                      1                       # What write queue length does an incoming req see
system.mem_ctrls.wrQLenPdf::13                      1                       # What write queue length does an incoming req see
system.mem_ctrls.wrQLenPdf::14                      1                       # What write queue length does an incoming req see
system.mem_ctrls.wrQLenPdf::15                    673                       # What write queue length does an incoming req see
system.mem_ctrls.wrQLenPdf::16                    776                       # What write queue length does an incoming req see
system.mem_ctrls.wrQLenPdf::17                   6671                       # What write queue length does an incoming req see
system.mem_ctrls.wrQLenPdf::18                   7314                       # What write queue length does an incoming req see
system.mem_ctrls.wrQLenPdf::19                   7440                       # What write queue length does an incoming req see
system.mem_ctrls.wrQLenPdf::20                   7409                       # What write queue length does an incoming req see
system.mem_ctrls.wrQLenPdf::21                   7408                       # What write queue length does an incoming req see
system.mem_ctrls.wrQLenPdf::22                   7496                       # What write queue length does an incoming req see
system.mem_ctrls.wrQLenPdf::23                   7410                       # What write queue length does an incoming req see
system.mem_ctrls.wrQLenPdf::24                   7380                       # What write queue length does an incoming req see
system.mem_ctrls.wrQLenPdf::25                   7385                       # What write queue length does an incoming req see
system.mem_ctrls.wrQLenPdf::26                   7400                       # What write queue length does an incoming req see
system.mem_ctrls.wrQLenPdf::27                   7357                       # What write queue length does an incoming req see
system.mem_ctrls.wrQLenPdf::28                   7353                       # What write queue length does an incoming req see
system.mem_ctrls.wrQLenPdf::29                   7347                       # What write queue length does an incoming req see
system.mem_ctrls.wrQLenPdf::30                   7316                       # What write queue length does an incoming req see
system.mem_ctrls.wrQLenPdf::31                   7318                       # What write queue length does an incoming req see
system.mem_ctrls.wrQLenPdf::32                   7314                       # What write queue length does an incoming req see
system.mem_ctrls.wrQLenPdf::33                     15                       # What write queue length does an incoming req see
system.mem_ctrls.wrQLenPdf::34                      5                       # What write queue length does an incoming req see
system.mem_ctrls.wrQLenPdf::35                      1                       # What write queue length does an incoming req see
system.mem_ctrls.wrQLenPdf::36                      1                       # What write queue length does an incoming req see
system.mem_ctrls.wrQLenPdf::37                      0                       # What write queue length does an incoming req see
system.mem_ctrls.wrQLenPdf::38                      0                       # What write queue length does an incoming req see
system.mem_ctrls.wrQLenPdf::39                      0                       # What write queue length does an incoming req see
system.mem_ctrls.wrQLenPdf::40                      0                       # What write queue length does an incoming req see
system.mem_ctrls.wrQLenPdf::41                      0                       # What write queue length does an incoming req see
system.mem_ctrls.wrQLenPdf::42                      0                       # What write queue length does an incoming req see
system.mem_ctrls.wrQLenPdf::43                      0                       # What write queue length does an incoming req see
system.mem_ctrls.wrQLenPdf::44                      0                       # What write queue length does an incoming req see
system.mem_ctrls.wrQLenPdf::45                      0                       # What write queue length does an incoming req see
system.mem_ctrls.wrQLenPdf::46                      0                       # What write queue length does an incoming req see
system.mem_ctrls.wrQLenPdf::47                      0                       # What write queue length does an incoming req see
system.mem_ctrls.wrQLenPdf::48                      0                       # What write queue length does an incoming req see
system.mem_ctrls.wrQLenPdf::49                      0                       # What write queue length does an incoming req see
system.mem_ctrls.wrQLenPdf::50                      0                       # What write queue length does an incoming req see
system.mem_ctrls.wrQLenPdf::51                      0                       # What write queue length does an incoming req see
system.mem_ctrls.wrQLenPdf::52                      0                       # What write queue length does an incoming req see
system.mem_ctrls.wrQLenPdf::53                      0                       # What write queue length does an incoming req see
system.mem_ctrls.wrQLenPdf::54                      0                       # What write queue length does an incoming req see
system.mem_ctrls.wrQLenPdf::55                      0                       # What write queue length does an incoming req see
system.mem_ctrls.wrQLenPdf::56                      0                       # What write queue length does an incoming req see
system.mem_ctrls.wrQLenPdf::57                      0                       # What write queue length does an incoming req see
system.mem_ctrls.wrQLenPdf::58                      0                       # What write queue length does an incoming req see
system.mem_ctrls.wrQLenPdf::59                      0                       # What write queue length does an incoming req see
system.mem_ctrls.wrQLenPdf::60                      0                       # What write queue length does an incoming req see
system.mem_ctrls.wrQLenPdf::61                      0                       # What write queue length does an incoming req see
system.mem_ctrls.wrQLenPdf::62                      0                       # What write queue length does an incoming req see
system.mem_ctrls.wrQLenPdf::63                      0                       # What write queue length does an incoming req see
system.mem_ctrls.bytesPerActivate::samples        81431                       # Bytes accessed per row activation
system.mem_ctrls.bytesPerActivate::mean    208.435608                       # Bytes accessed per row activation
system.mem_ctrls.bytesPerActivate::gmean   140.088486                       # Bytes accessed per row activation
system.mem_ctrls.bytesPerActivate::stdev   225.435060                       # Bytes accessed per row activation
system.mem_ctrls.bytesPerActivate::0-127        34517     42.39%     42.39% # Bytes accessed per row activation
system.mem_ctrls.bytesPerActivate::128-255        24252     29.78%     72.17% # Bytes accessed per row activation
system.mem_ctrls.bytesPerActivate::256-383         9904     12.16%     84.33% # Bytes accessed per row activation
system.mem_ctrls.bytesPerActivate::384-511         4674      5.74%     90.07% # Bytes accessed per row activation
system.mem_ctrls.bytesPerActivate::512-639         2355      2.89%     92.96% # Bytes accessed per row activation
system.mem_ctrls.bytesPerActivate::640-767         1382      1.70%     94.66% # Bytes accessed per row activation
system.mem_ctrls.bytesPerActivate::768-895          921      1.13%     95.79% # Bytes accessed per row activation
system.mem_ctrls.bytesPerActivate::896-1023          586      0.72%     96.51% # Bytes accessed per row activation
system.mem_ctrls.bytesPerActivate::1024-1151         2840      3.49%    100.00% # Bytes accessed per row activation
system.mem_ctrls.bytesPerActivate::total        81431                       # Bytes accessed per row activation
system.mem_ctrls.rdPerTurnAround::samples         7310                       # Reads before turning the bus around for writes
system.mem_ctrls.rdPerTurnAround::mean      20.032148                       # Reads before turning the bus around for writes
system.mem_ctrls.rdPerTurnAround::gmean     18.424216                       # Reads before turning the bus around for writes
system.mem_ctrls.rdPerTurnAround::stdev     12.604455                       # Reads before turning the bus around for writes
system.mem_ctrls.rdPerTurnAround::0-15           1292     17.67%     17.67% # Reads before turning the bus around for writes
system.mem_ctrls.rdPerTurnAround::16-31          5531     75.66%     93.34% # Reads before turning the bus around for writes
system.mem_ctrls.rdPerTurnAround::32-47           302      4.13%     97.47% # Reads before turning the bus around for writes
system.mem_ctrls.rdPerTurnAround::48-63            79      1.08%     98.55% # Reads before turning the bus around for writes
system.mem_ctrls.rdPerTurnAround::64-79            47      0.64%     99.19% # Reads before turning the bus around for writes
system.mem_ctrls.rdPerTurnAround::80-95            22      0.30%     99.49% # Reads before turning the bus around for writes
system.mem_ctrls.rdPerTurnAround::96-111            9      0.12%     99.62% # Reads before turning the bus around for writes
system.mem_ctrls.rdPerTurnAround::112-127            6      0.08%     99.70% # Reads before turning the bus around for writes
system.mem_ctrls.rdPerTurnAround::128-143           14      0.19%     99.89% # Reads before turning the bus around for writes
system.mem_ctrls.rdPerTurnAround::144-159            4      0.05%     99.95% # Reads before turning the bus around for writes
system.mem_ctrls.rdPerTurnAround::160-175            1      0.01%     99.96% # Reads before turning the bus around for writes
system.mem_ctrls.rdPerTurnAround::176-191            1      0.01%     99.97% # Reads before turning the bus around for writes
system.mem_ctrls.rdPerTurnAround::192-207            1      0.01%     99.99% # Reads before turning the bus around for writes
system.mem_ctrls.rdPerTurnAround::400-415            1      0.01%    100.00% # Reads before turning the bus around for writes
system.mem_ctrls.rdPerTurnAround::total          7310                       # Reads before turning the bus around for writes
system.mem_ctrls.wrPerTurnAround::samples         7310                       # Writes before turning the bus around for reads
system.mem_ctrls.wrPerTurnAround::mean      16.248837                       # Writes before turning the bus around for reads
system.mem_ctrls.wrPerTurnAround::gmean     16.232768                       # Writes before turning the bus around for reads
system.mem_ctrls.wrPerTurnAround::stdev      0.755729                       # Writes before turning the bus around for reads
system.mem_ctrls.wrPerTurnAround::16             6505     88.99%     88.99% # Writes before turning the bus around for reads
system.mem_ctrls.wrPerTurnAround::17              107      1.46%     90.45% # Writes before turning the bus around for reads
system.mem_ctrls.wrPerTurnAround::18              454      6.21%     96.66% # Writes before turning the bus around for reads
system.mem_ctrls.wrPerTurnAround::19              174      2.38%     99.04% # Writes before turning the bus around for reads
system.mem_ctrls.wrPerTurnAround::20               68      0.93%     99.97% # Writes before turning the bus around for reads
system.mem_ctrls.wrPerTurnAround::21                2      0.03%    100.00% # Writes before turning the bus around for reads
system.mem_ctrls.wrPerTurnAround::total          7310                       # Writes before turning the bus around for reads
system.mem_ctrls.bytesReadDRAM                9372352                       # Total number of bytes read from DRAM
system.mem_ctrls.bytesReadWrQ                  665408                       # Total number of bytes read from write queue
system.mem_ctrls.bytesWritten                 7601856                       # Total number of bytes written to DRAM
system.mem_ctrls.bytesReadSys                10037760                       # Total read bytes from the system interface side
system.mem_ctrls.bytesWrittenSys              7750144                       # Total written bytes from the system interface side
system.mem_ctrls.avgRdBW                       793.41                       # Average DRAM read bandwidth in MiByte/s
system.mem_ctrls.avgWrBW                       643.53                       # Average achieved write bandwidth in MiByte/s
system.mem_ctrls.avgRdBWSys                    849.74                       # Average system read bandwidth in MiByte/s
system.mem_ctrls.avgWrBWSys                    656.08                       # Average system write bandwidth in MiByte/s
system.mem_ctrls.peakBW                      12800.00                       # Theoretical peak bandwidth in MiByte/s
system.mem_ctrls.busUtil                        11.23                       # Data bus utilization in percentage
system.mem_ctrls.busUtilRead                     6.20                       # Data bus utilization in percentage for reads
system.mem_ctrls.busUtilWrite                    5.03                       # Data bus utilization in percentage for writes
system.mem_ctrls.totGap                   11812782500                       # Total gap between requests
system.mem_ctrls.avgGap                      42501.81                       # Average gap between requests
system.mem_ctrls.masterReadBytes::.cpu.inst      4936704                       # Per-master bytes read from memory
system.mem_ctrls.masterReadBytes::.cpu.data      4435648                       # Per-master bytes read from memory
system.mem_ctrls.masterWriteBytes::.writebacks      7601856                       # Per-master bytes write to memory
system.mem_ctrls.masterReadRate::.cpu.inst 417911860.346256136894                       # Per-master bytes read from memory rate (Bytes/sec)
system.mem_ctrls.masterReadRate::.cpu.data 375495453.549807786942                       # Per-master bytes read from memory rate (Bytes/sec)
[...]
system.cpu.icache.ReadReq_mshr_miss_latency::.cpu.inst  11106945000                       # number of ReadReq MSHR miss cycles
system.cpu.icache.ReadReq_mshr_miss_latency::total  11106945000                       # number of ReadReq MSHR miss cycles
system.cpu.icache.ReadReq_mshr_miss_rate::.cpu.inst     0.003320                       # mshr miss rate for ReadReq accesses
system.cpu.icache.ReadReq_mshr_miss_rate::total     0.003320                       # mshr miss rate for ReadReq accesses
system.cpu.icache.ReadReq_avg_mshr_miss_latency::.cpu.inst 23367.201602                       # average ReadReq mshr miss latency
system.cpu.icache.ReadReq_avg_mshr_miss_latency::total 23367.201602                       # average ReadReq mshr miss latency
system.cpu.icache.tags.pwrStateResidencyTicks::UNDEFINED 318467426000                       # Cumulative time (in ticks) in various power states
system.cpu.icache.tags.tagsinuse                  512                       # Cycle average of tags in use
system.cpu.icache.tags.total_refs           143191647                       # Total number of references to valid blocks.
system.cpu.icache.tags.sampled_refs            475835                       # Sample count of references to valid blocks.
system.cpu.icache.tags.avg_refs            300.927101                       # Average number of references to valid blocks.
system.cpu.icache.tags.warmup_cycle                 0                       # Cycle when the warmup percentage was hit.
system.cpu.icache.tags.occ_blocks::.cpu.inst          512                       # Average occupied blocks per requestor
system.cpu.icache.tags.occ_percent::.cpu.inst            1                       # Average percentage of cache occupancy
system.cpu.icache.tags.occ_percent::total            1                       # Average percentage of cache occupancy
system.cpu.icache.tags.occ_task_id_blocks::1024          512                       # Occupied blocks per task id
system.cpu.icache.tags.age_task_id_blocks_1024::0            2                       # Occupied blocks per task id
system.cpu.icache.tags.age_task_id_blocks_1024::2           51                       # Occupied blocks per task id
system.cpu.icache.tags.age_task_id_blocks_1024::3            8                       # Occupied blocks per task id
system.cpu.icache.tags.age_task_id_blocks_1024::4          451                       # Occupied blocks per task id
system.cpu.icache.tags.occ_task_id_percent::1024            1                       # Percentage of cache occupancy per task id
system.cpu.icache.tags.tag_accesses         286801299                       # Number of tag accesses
system.cpu.icache.tags.data_accesses        286801299                       # Number of data accesses
system.cpu.dcache.pwrStateResidencyTicks::UNDEFINED 318467426000                       # Cumulative time (in ticks) in various power states
system.cpu.dcache.demand_hits::.cpu.data    103516940                       # number of demand (read+write) hits
system.cpu.dcache.demand_hits::total        103516940                       # number of demand (read+write) hits
system.cpu.dcache.overall_hits::.cpu.data    103516940                       # number of overall hits
system.cpu.dcache.overall_hits::total       103516940                       # number of overall hits
system.cpu.dcache.demand_misses::.cpu.data       107853                       # number of demand (read+write) misses
system.cpu.dcache.demand_misses::total         107853                       # number of demand (read+write) misses
system.cpu.dcache.overall_misses::.cpu.data       107853                       # number of overall misses
system.cpu.dcache.overall_misses::total        107853                       # number of overall misses
system.cpu.dcache.demand_miss_latency::.cpu.data   7095858000                       # number of demand (read+write) miss cycles
system.cpu.dcache.demand_miss_latency::total   7095858000                       # number of demand (read+write) miss cycles
system.cpu.dcache.overall_miss_latency::.cpu.data   7095858000                       # number of overall miss cycles
system.cpu.dcache.overall_miss_latency::total   7095858000                       # number of overall miss cycles
system.cpu.dcache.demand_accesses::.cpu.data    103624793                       # number of demand (read+write) accesses
system.cpu.dcache.demand_accesses::total    103624793                       # number of demand (read+write) accesses
system.cpu.dcache.overall_accesses::.cpu.data    103624793                       # number of overall (read+write) accesses
system.cpu.dcache.overall_accesses::total    103624793                       # number of overall (read+write) accesses
system.cpu.dcache.demand_miss_rate::.cpu.data     0.001041                       # miss rate for demand accesses
system.cpu.dcache.demand_miss_rate::total     0.001041                       # miss rate for demand accesses
system.cpu.dcache.overall_miss_rate::.cpu.data     0.001041                       # miss rate for overall accesses
system.cpu.dcache.overall_miss_rate::total     0.001041                       # miss rate for overall accesses
system.cpu.dcache.demand_avg_miss_latency::.cpu.data 65791.939028                       # average overall miss latency
system.cpu.dcache.demand_avg_miss_latency::total 65791.939028                       # average overall miss latency
system.cpu.dcache.overall_avg_miss_latency::.cpu.data 65791.939028                       # average overall miss latency
system.cpu.dcache.overall_avg_miss_latency::total 65791.939028                       # average overall miss latency
system.cpu.dcache.blocked_cycles::no_mshrs            0                       # number of cycles access was blocked
system.cpu.dcache.blocked_cycles::no_targets            0                       # number of cycles access was blocked
system.cpu.dcache.blocked::no_mshrs                 0                       # number of cycles access was blocked
system.cpu.dcache.blocked::no_targets               0                       # number of cycles access was blocked
system.cpu.dcache.avg_blocked_cycles::no_mshrs          nan                       # average number of cycles each access was blocked
system.cpu.dcache.avg_blocked_cycles::no_targets          nan                       # average number of cycles each access was blocked
system.cpu.dcache.writebacks::.writebacks        16130                       # number of writebacks
system.cpu.dcache.writebacks::total             16130                       # number of writebacks
system.cpu.dcache.demand_mshr_hits::.cpu.data         3949                       # number of demand (read+write) MSHR hits
system.cpu.dcache.demand_mshr_hits::total         3949                       # number of demand (read+write) MSHR hits
system.cpu.dcache.overall_mshr_hits::.cpu.data         3949                       # number of overall MSHR hits
system.cpu.dcache.overall_mshr_hits::total         3949                       # number of overall MSHR hits
system.cpu.dcache.demand_mshr_misses::.cpu.data       103904                       # number of demand (read+write) MSHR misses
system.cpu.dcache.demand_mshr_misses::total       103904                       # number of demand (read+write) MSHR misses
system.cpu.dcache.overall_mshr_misses::.cpu.data       103904                       # number of overall MSHR misses
system.cpu.dcache.overall_mshr_misses::total       103904                       # number of overall MSHR misses
system.cpu.dcache.overall_mshr_uncacheable_misses::.cpu.data          326                       # number of overall MSHR uncacheable misses
system.cpu.dcache.overall_mshr_uncacheable_misses::total          326                       # number of overall MSHR uncacheable misses
system.cpu.dcache.demand_mshr_miss_latency::.cpu.data   6866908000                       # number of demand (read+write) MSHR miss cycles
system.cpu.dcache.demand_mshr_miss_latency::total   6866908000                       # number of demand (read+write) MSHR miss cycles
system.cpu.dcache.overall_mshr_miss_latency::.cpu.data   6866908000                       # number of overall MSHR miss cycles
system.cpu.dcache.overall_mshr_miss_latency::total   6866908000                       # number of overall MSHR miss cycles
system.cpu.dcache.demand_mshr_miss_rate::.cpu.data     0.001003                       # mshr miss rate for demand accesses
system.cpu.dcache.demand_mshr_miss_rate::total     0.001003                       # mshr miss rate for demand accesses
system.cpu.dcache.overall_mshr_miss_rate::.cpu.data     0.001003                       # mshr miss rate for overall accesses
system.cpu.dcache.overall_mshr_miss_rate::total     0.001003                       # mshr miss rate for overall accesses
system.cpu.dcache.demand_avg_mshr_miss_latency::.cpu.data 66088.966739                       # average overall mshr miss latency
system.cpu.dcache.demand_avg_mshr_miss_latency::total 66088.966739                       # average overall mshr miss latency
system.cpu.dcache.overall_avg_mshr_miss_latency::.cpu.data 66088.966739                       # average overall mshr miss latency
system.cpu.dcache.overall_avg_mshr_miss_latency::total 66088.966739                       # average overall mshr miss latency
system.cpu.dcache.replacements                 104104                       # number of replacements
system.cpu.dcache.ReadReq_hits::.cpu.data     62489114                       # number of ReadReq hits
system.cpu.dcache.ReadReq_hits::total        62489114                       # number of ReadReq hits
system.cpu.dcache.ReadReq_misses::.cpu.data        89838                       # number of ReadReq misses
system.cpu.dcache.ReadReq_misses::total         89838                       # number of ReadReq misses
system.cpu.dcache.ReadReq_miss_latency::.cpu.data   6179307500                       # number of ReadReq miss cycles
system.cpu.dcache.ReadReq_miss_latency::total   6179307500                       # number of ReadReq miss cycles
system.cpu.dcache.ReadReq_accesses::.cpu.data     62578952                       # number of ReadReq accesses(hits+misses)
system.cpu.dcache.ReadReq_accesses::total     62578952                       # number of ReadReq accesses(hits+misses)
system.cpu.dcache.ReadReq_miss_rate::.cpu.data     0.001436                       # miss rate for ReadReq accesses
system.cpu.dcache.ReadReq_miss_rate::total     0.001436                       # miss rate for ReadReq accesses
system.cpu.dcache.ReadReq_avg_miss_latency::.cpu.data 68782.781228                       # average ReadReq miss latency
system.cpu.dcache.ReadReq_avg_miss_latency::total 68782.781228                       # average ReadReq miss latency
system.cpu.dcache.ReadReq_mshr_hits::.cpu.data           39                       # number of ReadReq MSHR hits
system.cpu.dcache.ReadReq_mshr_hits::total           39                       # number of ReadReq MSHR hits
system.cpu.dcache.ReadReq_mshr_misses::.cpu.data        89799                       # number of ReadReq MSHR misses
system.cpu.dcache.ReadReq_mshr_misses::total        89799                       # number of ReadReq MSHR misses
system.cpu.dcache.ReadReq_mshr_miss_latency::.cpu.data   6085471500                       # number of ReadReq MSHR miss cycles
system.cpu.dcache.ReadReq_mshr_miss_latency::total   6085471500                       # number of ReadReq MSHR miss cycles
system.cpu.dcache.ReadReq_mshr_miss_rate::.cpu.data     0.001435                       # mshr miss rate for ReadReq accesses
system.cpu.dcache.ReadReq_mshr_miss_rate::total     0.001435                       # mshr miss rate for ReadReq accesses
system.cpu.dcache.ReadReq_avg_mshr_miss_latency::.cpu.data 67767.697859                       # average ReadReq mshr miss latency
system.cpu.dcache.ReadReq_avg_mshr_miss_latency::total 67767.697859                       # average ReadReq mshr miss latency
system.cpu.dcache.WriteReq_hits::.cpu.data     41027826                       # number of WriteReq hits
system.cpu.dcache.WriteReq_hits::total       41027826                       # number of WriteReq hits
system.cpu.dcache.WriteReq_misses::.cpu.data        18015                       # number of WriteReq misses
system.cpu.dcache.WriteReq_misses::total        18015                       # number of WriteReq misses
system.cpu.dcache.WriteReq_miss_latency::.cpu.data    916550500                       # number of WriteReq miss cycles
system.cpu.dcache.WriteReq_miss_latency::total    916550500                       # number of WriteReq miss cycles
system.cpu.dcache.WriteReq_accesses::.cpu.data     41045841                       # number of WriteReq accesses(hits+misses)
system.cpu.dcache.WriteReq_accesses::total     41045841                       # number of WriteReq accesses(hits+misses)
system.cpu.dcache.WriteReq_miss_rate::.cpu.data     0.000439                       # miss rate for WriteReq accesses
system.cpu.dcache.WriteReq_miss_rate::total     0.000439                       # miss rate for WriteReq accesses
system.cpu.dcache.WriteReq_avg_miss_latency::.cpu.data 50877.074660                       # average WriteReq miss latency
system.cpu.dcache.WriteReq_avg_miss_latency::total 50877.074660                       # average WriteReq miss latency
system.cpu.dcache.WriteReq_mshr_hits::.cpu.data         3910                       # number of WriteReq MSHR hits
system.cpu.dcache.WriteReq_mshr_hits::total         3910                       # number of WriteReq MSHR hits
system.cpu.dcache.WriteReq_mshr_misses::.cpu.data        14105                       # number of WriteReq MSHR misses
system.cpu.dcache.WriteReq_mshr_misses::total        14105                       # number of WriteReq MSHR misses
system.cpu.dcache.WriteReq_mshr_uncacheable::.cpu.data          326                       # number of WriteReq MSHR uncacheable
system.cpu.dcache.WriteReq_mshr_uncacheable::total          326                       # number of WriteReq MSHR uncacheable
system.cpu.dcache.WriteReq_mshr_miss_latency::.cpu.data    781436500                       # number of WriteReq MSHR miss cycles
system.cpu.dcache.WriteReq_mshr_miss_latency::total    781436500                       # number of WriteReq MSHR miss cycles
system.cpu.dcache.WriteReq_mshr_miss_rate::.cpu.data     0.000344                       # mshr miss rate for WriteReq accesses
system.cpu.dcache.WriteReq_mshr_miss_rate::total     0.000344                       # mshr miss rate for WriteReq accesses
system.cpu.dcache.WriteReq_avg_mshr_miss_latency::.cpu.data 55401.382488                       # average WriteReq mshr miss latency
system.cpu.dcache.WriteReq_avg_mshr_miss_latency::total 55401.382488                       # average WriteReq mshr miss latency
system.cpu.dcache.LoadLockedReq_hits::.cpu.data         1908                       # number of LoadLockedReq hits
system.cpu.dcache.LoadLockedReq_hits::total         1908                       # number of LoadLockedReq hits
system.cpu.dcache.LoadLockedReq_misses::.cpu.data          200                       # number of LoadLockedReq misses
system.cpu.dcache.LoadLockedReq_misses::total          200                       # number of LoadLockedReq misses
system.cpu.dcache.LoadLockedReq_miss_latency::.cpu.data     15458500                       # number of LoadLockedReq miss cycles
system.cpu.dcache.LoadLockedReq_miss_latency::total     15458500                       # number of LoadLockedReq miss cycles
system.cpu.dcache.LoadLockedReq_accesses::.cpu.data         2108                       # number of LoadLockedReq accesses(hits+misses)
system.cpu.dcache.LoadLockedReq_accesses::total         2108                       # number of LoadLockedReq accesses(hits+misses)
system.cpu.dcache.LoadLockedReq_miss_rate::.cpu.data     0.094877                       # miss rate for LoadLockedReq accesses
system.cpu.dcache.LoadLockedReq_miss_rate::total     0.094877                       # miss rate for LoadLockedReq accesses
system.cpu.dcache.LoadLockedReq_avg_miss_latency::.cpu.data 77292.500000                       # average LoadLockedReq miss latency
system.cpu.dcache.LoadLockedReq_avg_miss_latency::total 77292.500000                       # average LoadLockedReq miss latency
system.cpu.dcache.LoadLockedReq_mshr_misses::.cpu.data          200                       # number of LoadLockedReq MSHR misses
system.cpu.dcache.LoadLockedReq_mshr_misses::total          200                       # number of LoadLockedReq MSHR misses
system.cpu.dcache.LoadLockedReq_mshr_miss_latency::.cpu.data     15258500                       # number of LoadLockedReq MSHR miss cycles
system.cpu.dcache.LoadLockedReq_mshr_miss_latency::total     15258500                       # number of LoadLockedReq MSHR miss cycles
system.cpu.dcache.LoadLockedReq_mshr_miss_rate::.cpu.data     0.094877                       # mshr miss rate for LoadLockedReq accesses
system.cpu.dcache.LoadLockedReq_mshr_miss_rate::total     0.094877                       # mshr miss rate for LoadLockedReq accesses
system.cpu.dcache.LoadLockedReq_avg_mshr_miss_latency::.cpu.data 76292.500000                       # average LoadLockedReq mshr miss latency
system.cpu.dcache.LoadLockedReq_avg_mshr_miss_latency::total 76292.500000                       # average LoadLockedReq mshr miss latency
system.cpu.dcache.StoreCondReq_hits::.cpu.data         2108                       # number of StoreCondReq hits
system.cpu.dcache.StoreCondReq_hits::total         2108                       # number of StoreCondReq hits
system.cpu.dcache.StoreCondReq_accesses::.cpu.data         2108                       # number of StoreCondReq accesses(hits+misses)
system.cpu.dcache.StoreCondReq_accesses::total         2108                       # number of StoreCondReq accesses(hits+misses)
system.cpu.dcache.tags.pwrStateResidencyTicks::UNDEFINED 318467426000                       # Cumulative time (in ticks) in various power states
system.cpu.dcache.tags.tagsinuse                 1024                       # Cycle average of tags in use
system.cpu.dcache.tags.total_refs           103663466                       # Total number of references to valid blocks.
system.cpu.dcache.tags.sampled_refs            105128                       # Sample count of references to valid blocks.
system.cpu.dcache.tags.avg_refs            986.069040                       # Average number of references to valid blocks.
system.cpu.dcache.tags.warmup_cycle                 0                       # Cycle when the warmup percentage was hit.
system.cpu.dcache.tags.occ_blocks::.cpu.data         1024                       # Average occupied blocks per requestor
system.cpu.dcache.tags.occ_percent::.cpu.data            1                       # Average percentage of cache occupancy
system.cpu.dcache.tags.occ_percent::total            1                       # Average percentage of cache occupancy
system.cpu.dcache.tags.occ_task_id_blocks::1024         1024                       # Occupied blocks per task id
system.cpu.dcache.tags.age_task_id_blocks_1024::1           19                       # Occupied blocks per task id
system.cpu.dcache.tags.age_task_id_blocks_1024::2          162                       # Occupied blocks per task id
system.cpu.dcache.tags.age_task_id_blocks_1024::3          651                       # Occupied blocks per task id
system.cpu.dcache.tags.age_task_id_blocks_1024::4          192                       # Occupied blocks per task id
system.cpu.dcache.tags.occ_task_id_percent::1024            1                       # Percentage of cache occupancy per task id
system.cpu.dcache.tags.tag_accesses         207362122                       # Number of tag accesses
system.cpu.dcache.tags.data_accesses        207362122                       # Number of data accesses

---------- End Simulation Statistics   ----------
