
---------- Begin Simulation Statistics ----------
final_tick                               2541678790500                       # Number of ticks from beginning of simulation (restored from checkpoints and never reset)
host_inst_rate                                 195045                       # Simulator instruction rate (inst/s)
host_mem_usage                                 748864                       # Number of bytes of host memory used
host_op_rate                                   195044                       # Simulator op (including micro ops) rate (op/s)
host_seconds                                    21.50                       # Real time elapsed on the host
host_tick_rate                              542782115                       # Simulator tick rate (ticks/s)
sim_freq                                 1000000000000                       # Frequency of simulated ticks
sim_insts                                     4193113                       # Number of instructions simulated
sim_ops                                       4193113                       # Number of ops (including micro ops) simulated
sim_seconds                                  0.011669                       # Number of seconds simulated
sim_ticks                                 11668945500                       # Number of ticks simulated
system.cpu.branchPred.BTBCorrect                    0                       # Number of correct BTB predictions (this stat may not work properly.
system.cpu.branchPred.BTBHitPct             60.553036                       # BTB Hit Percentage
system.cpu.branchPred.BTBHits                  328301                       # Number of BTB hits
system.cpu.branchPred.BTBLookups               542171                       # Number of BTB lookups
system.cpu.branchPred.RASInCorrect               2625                       # Number of incorrect RAS predictions.
system.cpu.branchPred.condIncorrect             56998                       # Number of conditional branches incorrect
system.cpu.branchPred.condPredicted            865068                       # Number of conditional branches predicted
system.cpu.branchPred.indirectHits              46552                       # Number of indirect target hits.
system.cpu.branchPred.indirectLookups          177944                       # Number of indirect predictor lookups.
system.cpu.branchPred.indirectMisses           131392                       # Number of indirect misses.
system.cpu.branchPred.lookups                 1037031                       # Number of BP lookups
system.cpu.branchPred.loop_predictor.loopPredictorCorrect       642553                       # Number of times the loop predictor is the provider and the prediction is correct
system.cpu.branchPred.loop_predictor.loopPredictorWrong       145711                       # Number of times the loop predictor is the provider and the prediction is wrong
system.cpu.branchPred.tage.bimodalAltMatchProviderCorrect         1851                       # Number of times TAGE Alt Match is the bimodal and it is the provider and the prediction is correct
system.cpu.branchPred.tage.bimodalAltMatchProviderWrong          784                       # Number of times TAGE Alt Match is the bimodal and it is the provider and the prediction is wrong
system.cpu.branchPred.tage.tageAltMatchProvider::0       114251                       # TAGE provider for alt match
system.cpu.branchPred.tage.tageAltMatchProvider::1        17552                       # TAGE provider for alt match
system.cpu.branchPred.tage.tageAltMatchProvider::2        14836                       # TAGE provider for alt match
system.cpu.branchPred.tage.tageAltMatchProvider::3        32579                       # TAGE provider for alt match
system.cpu.branchPred.tage.tageAltMatchProvider::4        17003                       # TAGE provider for alt match
system.cpu.branchPred.tage.tageAltMatchProvider::5        14102                       # TAGE provider for alt match
system.cpu.branchPred.tage.tageAltMatchProvider::6         4590                       # TAGE provider for alt match
system.cpu.branchPred.tage.tageAltMatchProvider::7         4925                       # TAGE provider for alt match
system.cpu.branchPred.tage.tageAltMatchProvider::8         1453                       # TAGE provider for alt match
system.cpu.branchPred.tage.tageAltMatchProvider::9          261                       # TAGE provider for alt match
system.cpu.branchPred.tage.tageAltMatchProvider::10          158                       # TAGE provider for alt match
system.cpu.branchPred.tage.tageAltMatchProvider::11          251                       # TAGE provider for alt match
system.cpu.branchPred.tage.tageAltMatchProvider::12            0                       # TAGE provider for alt match
system.cpu.branchPred.tage.tageAltMatchProviderCorrect         4099                       # Number of times TAGE Alt Match is the provider and the prediction is correct
system.cpu.branchPred.tage.tageAltMatchProviderWouldHaveHit         4127                       # Number of times TAGE Longest Match is the provider, the prediction is wrong and Alt Match prediction was correct
system.cpu.branchPred.tage.tageAltMatchProviderWrong         2199                       # Number of times TAGE Alt Match is the provider and the prediction is wrong
system.cpu.branchPred.tage.tageBimodalProviderCorrect       556505                       # Number of times there are no hits on the TAGE tables and the bimodal prediction is correct
system.cpu.branchPred.tage.tageBimodalProviderWrong         7163                       # Number of times there are no hits on the TAGE tables and the bimodal prediction is wrong
system.cpu.branchPred.tage.tageLongestMatchProvider::0            0                       # TAGE provider for longest match
system.cpu.branchPred.tage.tageLongestMatchProvider::1        47359                       # TAGE provider for longest match
system.cpu.branchPred.tage.tageLongestMatchProvider::2        32805                       # TAGE provider for longest match
system.cpu.branchPred.tage.tageLongestMatchProvider::3        35320                       # TAGE provider for longest match
system.cpu.branchPred.tage.tageLongestMatchProvider::4        29288                       # TAGE provider for longest match
system.cpu.branchPred.tage.tageLongestMatchProvider::5        34002                       # TAGE provider for longest match
system.cpu.branchPred.tage.tageLongestMatchProvider::6        15224                       # TAGE provider for longest match
system.cpu.branchPred.tage.tageLongestMatchProvider::7         9827                       # TAGE provider for longest match
system.cpu.branchPred.tage.tageLongestMatchProvider::8        14947                       # TAGE provider for longest match
system.cpu.branchPred.tage.tageLongestMatchProvider::9         2298                       # TAGE provider for longest match
system.cpu.branchPred.tage.tageLongestMatchProvider::10          387                       # TAGE provider for longest match
system.cpu.branchPred.tage.tageLongestMatchProvider::11          234                       # TAGE provider for longest match
system.cpu.branchPred.tage.tageLongestMatchProvider::12          270                       # TAGE provider for longest match
system.cpu.branchPred.tage.tageLongestMatchProviderCorrect       204777                       # Number of times TAGE Longest Match is the provider and the prediction is correct
system.cpu.branchPred.tage.tageLongestMatchProviderWouldHaveHit         1968                       # Number of times TAGE Alt Match is the provider, the prediction is wrong and Longest Match prediction was correct
system.cpu.branchPred.tage.tageLongestMatchProviderWrong        10886                       # Number of times TAGE Longest Match is the provider and the prediction is wrong
system.cpu.branchPred.usedRAS                   63037                       # Number of times the RAS was used to get a target.
system.cpu.branchPredindirectMispredicted        25579                       # Number of mispredicted indirect branches.
system.cpu.committedInsts                     4193113                       # Number of instructions committed
system.cpu.committedOps                       4193113                       # Number of ops (including micro ops) committed
system.cpu.cpi                               5.562600                       # CPI: cycles per instruction
system.cpu.discardedOps                        187400                       # Number of ops (including micro ops) which were discarded before commit
system.cpu.dtb.data_accesses                   605901                       # DTB accesses
system.cpu.dtb.data_acv                           130                       # DTB access violations
system.cpu.dtb.data_hits                      1449221                       # DTB hits
system.cpu.dtb.data_misses                       7556                       # DTB misses
system.cpu.dtb.fetch_accesses                       0                       # ITB accesses
system.cpu.dtb.fetch_acv                            0                       # ITB acv
system.cpu.dtb.fetch_hits                           0                       # ITB hits
system.cpu.dtb.fetch_misses                         0                       # ITB misses
system.cpu.dtb.read_accesses                   404885                       # DTB read accesses
system.cpu.dtb.read_acv                            43                       # DTB read access violations
system.cpu.dtb.read_hits                       847431                       # DTB read hits
system.cpu.dtb.read_misses                       6748                       # DTB read misses
system.cpu.dtb.write_accesses                  201016                       # DTB write accesses
system.cpu.dtb.write_acv                           87                       # DTB write access violations
system.cpu.dtb.write_hits                      601790                       # DTB write hits
system.cpu.dtb.write_misses                       808                       # DTB write misses
system.cpu.fetch2.amo_instructions                  0                       # Number of memory atomic instructions successfully decoded
system.cpu.fetch2.fp_instructions               18081                       # Number of floating point instructions successfully decoded
system.cpu.fetch2.int_instructions            3384229                       # Number of integer instructions successfully decoded
system.cpu.fetch2.load_instructions           1022466                       # Number of memory load instructions successfully decoded
system.cpu.fetch2.store_instructions           653178                       # Number of memory store instructions successfully decoded
system.cpu.fetch2.vec_instructions                  0                       # Number of SIMD instructions successfully decoded
system.cpu.idleCycles                        16654583                       # Total number of cycles that the object has spent stopped
system.cpu.ipc                               0.179772                       # IPC: instructions per cycle
system.cpu.itb.data_accesses                        0                       # DTB accesses
system.cpu.itb.data_acv                             0                       # DTB access violations
system.cpu.itb.data_hits                            0                       # DTB hits
system.cpu.itb.data_misses                          0                       # DTB misses
system.cpu.itb.fetch_accesses                  891289                       # ITB accesses
system.cpu.itb.fetch_acv                          508                       # ITB acv
system.cpu.itb.fetch_hits                      884943                       # ITB hits
system.cpu.itb.fetch_misses                      6346                       # ITB misses
system.cpu.itb.read_accesses                        0                       # DTB read accesses
system.cpu.itb.read_acv                             0                       # DTB read access violations
system.cpu.itb.read_hits                            0                       # DTB read hits
system.cpu.itb.read_misses                          0                       # DTB read misses
system.cpu.itb.write_accesses                       0                       # DTB write accesses
system.cpu.itb.write_acv                            0                       # DTB write access violations
system.cpu.itb.write_hits                           0                       # DTB write hits
system.cpu.itb.write_misses                         0                       # DTB write misses
system.cpu.kern.callpal::swpctx                   574      9.46%      9.46% # number of callpals executed
system.cpu.kern.callpal::tbi                       25      0.41%      9.87% # number of callpals executed
system.cpu.kern.callpal::swpipl                  4203     69.29%     79.16% # number of callpals executed
system.cpu.kern.callpal::rdps                      48      0.79%     79.95% # number of callpals executed
system.cpu.kern.callpal::wrusp                      4      0.07%     80.02% # number of callpals executed
system.cpu.kern.callpal::rdusp                      3      0.05%     80.07% # number of callpals executed
system.cpu.kern.callpal::rti                      896     14.77%     94.84% # number of callpals executed
system.cpu.kern.callpal::callsys                  235      3.87%     98.71% # number of callpals executed
system.cpu.kern.callpal::imb                       78      1.29%    100.00% # number of callpals executed
system.cpu.kern.callpal::total                   6066                       # number of callpals executed
system.cpu.kern.inst.arm                            0                       # number of arm instructions executed
system.cpu.kern.inst.hwrei                      14409                       # number of hwrei instructions executed
system.cpu.kern.inst.quiesce                        9                       # number of quiesce instructions executed
system.cpu.kern.ipl_count::0                     2425     47.40%     47.40% # number of times we switched to this ipl
system.cpu.kern.ipl_count::21                       5      0.10%     47.50% # number of times we switched to this ipl
system.cpu.kern.ipl_count::22                      12      0.23%     47.73% # number of times we switched to this ipl
system.cpu.kern.ipl_count::31                    2674     52.27%    100.00% # number of times we switched to this ipl
system.cpu.kern.ipl_count::total                 5116                       # number of times we switched to this ipl
system.cpu.kern.ipl_good::0                      2412     49.82%     49.82% # number of times we switched to this ipl from a different ipl
system.cpu.kern.ipl_good::21                        5      0.10%     49.93% # number of times we switched to this ipl from a different ipl
system.cpu.kern.ipl_good::22                       12      0.25%     50.18% # number of times we switched to this ipl from a different ipl
system.cpu.kern.ipl_good::31                     2412     49.82%    100.00% # number of times we switched to this ipl from a different ipl
system.cpu.kern.ipl_good::total                  4841                       # number of times we switched to this ipl from a different ipl
system.cpu.kern.ipl_ticks::0              10767917500     92.24%     92.24% # number of cycles we spent at this ipl
system.cpu.kern.ipl_ticks::21                 8917500      0.08%     92.32% # number of cycles we spent at this ipl
system.cpu.kern.ipl_ticks::22                17525500      0.15%     92.47% # number of cycles we spent at this ipl
system.cpu.kern.ipl_ticks::31               879105500      7.53%    100.00% # number of cycles we spent at this ipl
system.cpu.kern.ipl_ticks::total          11673466000                       # number of cycles we spent at this ipl
system.cpu.kern.ipl_used::0                  0.994639                       # fraction of swpipl calls that actually changed the ipl
system.cpu.kern.ipl_used::21                        1                       # fraction of swpipl calls that actually changed the ipl
system.cpu.kern.ipl_used::22                        1                       # fraction of swpipl calls that actually changed the ipl
system.cpu.kern.ipl_used::31                 0.902019                       # fraction of swpipl calls that actually changed the ipl
system.cpu.kern.ipl_used::total              0.946247                       # fraction of swpipl calls that actually changed the ipl
system.cpu.kern.mode_good::kernel                 872                      
system.cpu.kern.mode_good::user                   872                      
system.cpu.kern.mode_good::idle                     0                      
system.cpu.kern.mode_switch::kernel              1470                       # number of protection mode switches
system.cpu.kern.mode_switch::user                 872                       # number of protection mode switches
system.cpu.kern.mode_switch::idle                   0                       # number of protection mode switches
system.cpu.kern.mode_switch_good::kernel     0.593197                       # fraction of useful protection mode switches
system.cpu.kern.mode_switch_good::user              1                       # fraction of useful protection mode switches
system.cpu.kern.mode_switch_good::idle            nan                       # fraction of useful protection mode switches
system.cpu.kern.mode_switch_good::total      0.744663                       # fraction of useful protection mode switches
system.cpu.kern.mode_ticks::kernel         7928170500     67.92%     67.92% # number of ticks spent at the given mode
system.cpu.kern.mode_ticks::user           3745295500     32.08%    100.00% # number of ticks spent at the given mode
system.cpu.kern.mode_ticks::idle                    0      0.00%    100.00% # number of ticks spent at the given mode
system.cpu.kern.swap_context                      574                       # number of times the context was actually changed
system.cpu.numCycles                         23324609                       # number of cpu cycles simulated
system.cpu.numFetchSuspends                         9                       # Number of times Execute suspended instruction fetching
system.cpu.numWorkItemsCompleted                    0                       # number of work items this cpu completed
system.cpu.numWorkItemsStarted                      0                       # number of work items this cpu started
system.cpu.op_class_0::No_OpClass               85384      2.04%      2.04% # Class of committed instruction
system.cpu.op_class_0::IntAlu                 2539779     60.57%     62.61% # Class of committed instruction
system.cpu.op_class_0::IntMult                   3673      0.09%     62.69% # Class of committed instruction
system.cpu.op_class_0::IntDiv                       0      0.00%     62.69% # Class of committed instruction
system.cpu.op_class_0::FloatAdd                  8286      0.20%     62.89% # Class of committed instruction
system.cpu.op_class_0::FloatCmp                     0      0.00%     62.89% # Class of committed instruction
system.cpu.op_class_0::FloatCvt                     0      0.00%     62.89% # Class of committed instruction
system.cpu.op_class_0::FloatMult                    0      0.00%     62.89% # Class of committed instruction
system.cpu.op_class_0::FloatMultAcc                 0      0.00%     62.89% # Class of committed instruction
system.cpu.op_class_0::FloatDiv                  1593      0.04%     62.93% # Class of committed instruction
system.cpu.op_class_0::FloatMisc                    0      0.00%     62.93% # Class of committed instruction
system.cpu.op_class_0::FloatSqrt                    0      0.00%     62.93% # Class of committed instruction
system.cpu.op_class_0::SimdAdd                      0      0.00%     62.93% # Class of committed instruction
system.cpu.op_class_0::SimdAddAcc                   0      0.00%     62.93% # Class of committed instruction
system.cpu.op_class_0::SimdAlu                      0      0.00%     62.93% # Class of committed instruction
system.cpu.op_class_0::SimdCmp                      0      0.00%     62.93% # Class of committed instruction
system.cpu.op_class_0::SimdCvt                      0      0.00%     62.93% # Class of committed instruction
system.cpu.op_class_0::SimdMisc                     0      0.00%     62.93% # Class of committed instruction
system.cpu.op_class_0::SimdMult                     0      0.00%     62.93% # Class of committed instruction
system.cpu.op_class_0::SimdMultAcc                  0      0.00%     62.93% # Class of committed instruction
system.cpu.op_class_0::SimdShift                    0      0.00%     62.93% # Class of committed instruction
system.cpu.op_class_0::SimdShiftAcc                 0      0.00%     62.93% # Class of committed instruction
system.cpu.op_class_0::SimdDiv                      0      0.00%     62.93% # Class of committed instruction
system.cpu.op_class_0::SimdSqrt                     0      0.00%     62.93% # Class of committed instruction
system.cpu.op_class_0::SimdFloatAdd                 0      0.00%     62.93% # Class of committed instruction
system.cpu.op_class_0::SimdFloatAlu                 0      0.00%     62.93% # Class of committed instruction
system.cpu.op_class_0::SimdFloatCmp                 0      0.00%     62.93% # Class of committed instruction
system.cpu.op_class_0::SimdFloatCvt                 0      0.00%     62.93% # Class of committed instruction
system.cpu.op_class_0::SimdFloatDiv                 0      0.00%     62.93% # Class of committed instruction
system.cpu.op_class_0::SimdFloatMisc                0      0.00%     62.93% # Class of committed instruction
system.cpu.op_class_0::SimdFloatMult                0      0.00%     62.93% # Class of committed instruction
system.cpu.op_class_0::SimdFloatMultAcc             0      0.00%     62.93% # Class of committed instruction
system.cpu.op_class_0::SimdFloatSqrt                0      0.00%     62.93% # Class of committed instruction
system.cpu.op_class_0::SimdReduceAdd                0      0.00%     62.93% # Class of committed instruction
system.cpu.op_class_0::SimdReduceAlu                0      0.00%     62.93% # Class of committed instruction
system.cpu.op_class_0::SimdReduceCmp                0      0.00%     62.93% # Class of committed instruction
system.cpu.op_class_0::SimdFloatReduceAdd            0      0.00%     62.93% # Class of committed instruction
system.cpu.op_class_0::SimdFloatReduceCmp            0      0.00%     62.93% # Class of committed instruction
system.cpu.op_class_0::SimdAes                      0      0.00%     62.93% # Class of committed instruction
system.cpu.op_class_0::SimdAesMix                   0      0.00%     62.93% # Class of committed instruction
system.cpu.op_class_0::SimdSha1Hash                 0      0.00%     62.93% # Class of committed instruction
system.cpu.op_class_0::SimdSha1Hash2                0      0.00%     62.93% # Class of committed instruction
system.cpu.op_class_0::SimdSha256Hash               0      0.00%     62.93% # Class of committed instruction
system.cpu.op_class_0::SimdSha256Hash2              0      0.00%     62.93% # Class of committed instruction
system.cpu.op_class_0::SimdShaSigma2                0      0.00%     62.93% # Class of committed instruction
system.cpu.op_class_0::SimdShaSigma3                0      0.00%     62.93% # Class of committed instruction
system.cpu.op_class_0::SimdPredAlu                  0      0.00%     62.93% # Class of committed instruction
system.cpu.op_class_0::MemRead                 838658     20.00%     82.93% # Class of committed instruction
system.cpu.op_class_0::MemWrite                592169     14.12%     97.05% # Class of committed instruction
system.cpu.op_class_0::FloatMemRead              9988      0.24%     97.29% # Class of committed instruction
system.cpu.op_class_0::FloatMemWrite             8788      0.21%     97.50% # Class of committed instruction
system.cpu.op_class_0::IprAccess               104795      2.50%    100.00% # Class of committed instruction
system.cpu.op_class_0::InstPrefetch                 0      0.00%    100.00% # Class of committed instruction
system.cpu.op_class_0::total                  4193113                       # Class of committed instruction
system.cpu.quiesceCycles                        13282                       # Total number of cycles that CPU has spent quiesced or waiting for an interrupt
system.cpu.tickCycles                         6670026                       # Number of cycles that the object actually ticked
system.disk0.dma_read_bytes                         0                       # Number of bytes transfered via DMA reads (not PRD).
system.disk0.dma_read_full_pages                    0                       # Number of full page size DMA reads (not PRD).
system.disk0.dma_read_txs                           0                       # Number of DMA read transactions (not PRD).
system.disk0.dma_write_bytes                    12288                       # Number of bytes transfered via DMA writes.
system.disk0.dma_write_full_pages                   0                       # Number of full page size DMA writes.
system.disk0.dma_write_txs                          3                       # Number of DMA write transactions.
system.disk2.dma_read_bytes                         0                       # Number of bytes transfered via DMA reads (not PRD).
system.disk2.dma_read_full_pages                    0                       # Number of full page size DMA reads (not PRD).
system.disk2.dma_read_txs                           0                       # Number of DMA read transactions (not PRD).
system.disk2.dma_write_bytes                        0                       # Number of bytes transfered via DMA writes.
system.disk2.dma_write_full_pages                   0                       # Number of full page size DMA writes.
system.disk2.dma_write_txs                          0                       # Number of DMA write transactions.
system.membus.snoop_filter.hit_multi_requests          429                       # Number of requests hitting in the snoop filter with multiple (>1) holders of the requested data.
system.membus.snoop_filter.hit_multi_snoops            0                       # Number of snoops hitting in the snoop filter with multiple (>1) holders of the requested data.
system.membus.snoop_filter.hit_single_requests       154741                       # Number of requests hitting in the snoop filter with a single holder of the requested data.
system.membus.snoop_filter.hit_single_snoops            0                       # Number of snoops hitting in the snoop filter with a single holder of the requested data.
system.membus.snoop_filter.tot_requests        311084                       # Total number of requests made to the snoop filter.
system.membus.snoop_filter.tot_snoops               0                       # Total number of snoops made to the snoop filter.
system.tsunami.ethernet.coalescedRxDesc           nan                       # average number of RxDesc's coalesced into each post
system.tsunami.ethernet.coalescedRxIdle           nan                       # average number of RxIdle's coalesced into each post
system.tsunami.ethernet.coalescedRxOk             nan                       # average number of RxOk's coalesced into each post
system.tsunami.ethernet.coalescedRxOrn            nan                       # average number of RxOrn's coalesced into each post
system.tsunami.ethernet.coalescedSwi              nan                       # average number of Swi's coalesced into each post
system.tsunami.ethernet.coalescedTotal            nan                       # average number of interrupts coalesced into each post
system.tsunami.ethernet.coalescedTxDesc           nan                       # average number of TxDesc's coalesced into each post
system.tsunami.ethernet.coalescedTxIdle           nan                       # average number of TxIdle's coalesced into each post
system.tsunami.ethernet.coalescedTxOk             nan                       # average number of TxOk's coalesced into each post
system.tsunami.ethernet.descDMAReads                0                       # Number of descriptors the device read w/ DMA
system.tsunami.ethernet.descDMAWrites               0                       # Number of descriptors the device wrote w/ DMA
system.tsunami.ethernet.descDmaReadBytes            0                       # number of descriptor bytes read w/ DMA
system.tsunami.ethernet.descDmaWriteBytes            0                       # number of descriptor bytes write w/ DMA
system.tsunami.ethernet.droppedPackets              0                       # number of packets dropped
system.tsunami.ethernet.postedInterrupts            0                       # number of posts to CPU
system.tsunami.ethernet.postedRxDesc                0                       # number of RxDesc interrupts posted to CPU
system.tsunami.ethernet.postedRxIdle                0                       # number of rxIdle interrupts posted to CPU
system.tsunami.ethernet.postedRxOk                  0                       # number of RxOk interrupts posted to CPU
system.tsunami.ethernet.postedRxOrn                 0                       # number of RxOrn posted to CPU
system.tsunami.ethernet.postedSwi                   0                       # number of software interrupts posted to CPU
system.tsunami.ethernet.postedTxDesc                0                       # number of TxDesc interrupts posted to CPU
system.tsunami.ethernet.postedTxIdle                0                       # number of TxIdle interrupts posted to CPU
system.tsunami.ethernet.postedTxOk                  0                       # number of TxOk interrupts posted to CPU
system.tsunami.ethernet.totalRxDesc                 0                       # total number of RxDesc written to ISR
system.tsunami.ethernet.totalRxIdle                 0                       # total number of RxIdle written to ISR
system.tsunami.ethernet.totalRxOk                   0                       # total number of RxOk written to ISR
system.tsunami.ethernet.totalRxOrn                  0                       # total number of RxOrn written to ISR
system.tsunami.ethernet.totalSwi                    0                       # total number of Swi written to ISR
system.tsunami.ethernet.totalTxDesc                 0                       # total number of TxDesc written to ISR
system.tsunami.ethernet.totalTxIdle                 0                       # total number of TxIdle written to ISR
system.tsunami.ethernet.totalTxOk                   0                       # total number of TxOk written to ISR
system.bridge.pwrStateResidencyTicks::UNDEFINED 2541678790500                       # Cumulative time (in ticks) in various power states
system.voltage_domain.voltage                       1                       # Voltage in Volts
system.iocache.pwrStateResidencyTicks::UNDEFINED 2541678790500                       # Cumulative time (in ticks) in various power states
system.iocache.demand_misses::.tsunami.ide          195                       # number of demand (read+write) misses
system.iocache.demand_misses::total               195                       # number of demand (read+write) misses
system.iocache.overall_misses::.tsunami.ide          195                       # number of overall misses
system.iocache.overall_misses::total              195                       # number of overall misses
system.iocache.demand_miss_latency::.tsunami.ide     22784457                       # number of demand (read+write) miss cycles
system.iocache.demand_miss_latency::total     22784457                       # number of demand (read+write) miss cycles
system.iocache.overall_miss_latency::.tsunami.ide     22784457                       # number of overall miss cycles
system.iocache.overall_miss_latency::total     22784457                       # number of overall miss cycles
system.iocache.demand_accesses::.tsunami.ide          195                       # number of demand (read+write) accesses
system.iocache.demand_accesses::total             195                       # number of demand (read+write) accesses
system.iocache.overall_accesses::.tsunami.ide          195                       # number of overall (read+write) accesses
system.iocache.overall_accesses::total            195                       # number of overall (read+write) accesses
system.iocache.demand_miss_rate::.tsunami.ide            1                       # miss rate for demand accesses
system.iocache.demand_miss_rate::total              1                       # miss rate for demand accesses
system.iocache.overall_miss_rate::.tsunami.ide            1                       # miss rate for overall accesses
system.iocache.overall_miss_rate::total             1                       # miss rate for overall accesses
system.iocache.demand_avg_miss_latency::.tsunami.ide 116843.369231                       # average overall miss latency
system.iocache.demand_avg_miss_latency::total 116843.369231                       # average overall miss latency
system.iocache.overall_avg_miss_latency::.tsunami.ide 116843.369231                       # average overall miss latency
system.iocache.overall_avg_miss_latency::total 116843.369231                       # average overall miss latency
system.iocache.blocked_cycles::no_mshrs             0                       # number of cycles access was blocked
system.iocache.blocked_cycles::no_targets            0                       # number of cycles access was blocked
system.iocache.blocked::no_mshrs                    0                       # number of cycles access was blocked
system.iocache.blocked::no_targets                  0                       # number of cycles access was blocked
system.iocache.avg_blocked_cycles::no_mshrs          nan                       # average number of cycles each access was blocked
system.iocache.avg_blocked_cycles::no_targets          nan                       # average number of cycles each access was blocked
system.iocache.writebacks::.writebacks            176                       # number of writebacks
system.iocache.writebacks::total                  176                       # number of writebacks
system.iocache.demand_mshr_misses::.tsunami.ide          195                       # number of demand (read+write) MSHR misses
system.iocache.demand_mshr_misses::total          195                       # number of demand (read+write) MSHR misses
system.iocache.overall_mshr_misses::.tsunami.ide          195                       # number of overall MSHR misses
system.iocache.overall_mshr_misses::total          195                       # number of overall MSHR misses
system.iocache.demand_mshr_miss_latency::.tsunami.ide     13023489                       # number of demand (read+write) MSHR miss cycles
system.iocache.demand_mshr_miss_latency::total     13023489                       # number of demand (read+write) MSHR miss cycles
system.iocache.overall_mshr_miss_latency::.tsunami.ide     13023489                       # number of overall MSHR miss cycles
system.iocache.overall_mshr_miss_latency::total     13023489                       # number of overall MSHR miss cycles
system.iocache.demand_mshr_miss_rate::.tsunami.ide            1                       # mshr miss rate for demand accesses
system.iocache.demand_mshr_miss_rate::total            1                       # mshr miss rate for demand accesses
system.iocache.overall_mshr_miss_rate::.tsunami.ide            1                       # mshr miss rate for overall accesses
system.iocache.overall_mshr_miss_rate::total            1                       # mshr miss rate for overall accesses
system.iocache.demand_avg_mshr_miss_latency::.tsunami.ide 66787.123077                       # average overall mshr miss latency
system.iocache.demand_avg_mshr_miss_latency::total 66787.123077                       # average overall mshr miss latency
system.iocache.overall_avg_mshr_miss_latency::.tsunami.ide 66787.123077                       # average overall mshr miss latency
system.iocache.overall_avg_mshr_miss_latency::total 66787.123077                       # average overall mshr miss latency
system.iocache.replacements                       179                       # number of replacements
system.iocache.ReadReq_misses::.tsunami.ide            3                       # number of ReadReq misses
system.iocache.ReadReq_misses::total                3                       # number of ReadReq misses
system.iocache.ReadReq_miss_latency::.tsunami.ide       349497                       # number of ReadReq miss cycles
system.iocache.ReadReq_miss_latency::total       349497                       # number of ReadReq miss cycles
system.iocache.ReadReq_accesses::.tsunami.ide            3                       # number of ReadReq accesses(hits+misses)
system.iocache.ReadReq_accesses::total              3                       # number of ReadReq accesses(hits+misses)
system.iocache.ReadReq_miss_rate::.tsunami.ide            1                       # miss rate for ReadReq accesses
system.iocache.ReadReq_miss_rate::total             1                       # miss rate for ReadReq accesses
system.iocache.ReadReq_avg_miss_latency::.tsunami.ide       116499                       # average ReadReq miss latency
system.iocache.ReadReq_avg_miss_latency::total       116499                       # average ReadReq miss latency
system.iocache.ReadReq_mshr_misses::.tsunami.ide            3                       # number of ReadReq MSHR misses
system.iocache.ReadReq_mshr_misses::total            3                       # number of ReadReq MSHR misses
system.iocache.ReadReq_mshr_miss_latency::.tsunami.ide       199497                       # number of ReadReq MSHR miss cycles
system.iocache.ReadReq_mshr_miss_latency::total       199497                       # number of ReadReq MSHR miss cycles
system.iocache.ReadReq_mshr_miss_rate::.tsunami.ide            1                       # mshr miss rate for ReadReq accesses
system.iocache.ReadReq_mshr_miss_rate::total            1                       # mshr miss rate for ReadReq accesses
system.iocache.ReadReq_avg_mshr_miss_latency::.tsunami.ide        66499                       # average ReadReq mshr miss latency
system.iocache.ReadReq_avg_mshr_miss_latency::total        66499                       # average ReadReq mshr miss latency
system.iocache.WriteLineReq_misses::.tsunami.ide          192                       # number of WriteLineReq misses
system.iocache.WriteLineReq_misses::total          192                       # number of WriteLineReq misses
system.iocache.WriteLineReq_miss_latency::.tsunami.ide     22434960                       # number of WriteLineReq miss cycles
system.iocache.WriteLineReq_miss_latency::total     22434960                       # number of WriteLineReq miss cycles
system.iocache.WriteLineReq_accesses::.tsunami.ide          192                       # number of WriteLineReq accesses(hits+misses)
system.iocache.WriteLineReq_accesses::total          192                       # number of WriteLineReq accesses(hits+misses)
system.iocache.WriteLineReq_miss_rate::.tsunami.ide            1                       # miss rate for WriteLineReq accesses
system.iocache.WriteLineReq_miss_rate::total            1                       # miss rate for WriteLineReq accesses
system.iocache.WriteLineReq_avg_miss_latency::.tsunami.ide 116848.750000                       # average WriteLineReq miss latency
system.iocache.WriteLineReq_avg_miss_latency::total 116848.750000                       # average WriteLineReq miss latency
system.iocache.WriteLineReq_mshr_misses::.tsunami.ide          192                       # number of WriteLineReq MSHR misses
system.iocache.WriteLineReq_mshr_misses::total          192                       # number of WriteLineReq MSHR misses
system.iocache.WriteLineReq_mshr_miss_latency::.tsunami.ide     12823992                       # number of WriteLineReq MSHR miss cycles
system.iocache.WriteLineReq_mshr_miss_latency::total     12823992                       # number of WriteLineReq MSHR miss cycles
system.iocache.WriteLineReq_mshr_miss_rate::.tsunami.ide            1                       # mshr miss rate for WriteLineReq accesses
system.iocache.WriteLineReq_mshr_miss_rate::total            1                       # mshr miss rate for WriteLineReq accesses
system.iocache.WriteLineReq_avg_mshr_miss_latency::.tsunami.ide 66791.625000                       # average WriteLineReq mshr miss latency
system.iocache.WriteLineReq_avg_mshr_miss_latency::total 66791.625000                       # average WriteLineReq mshr miss latency
system.iocache.tags.pwrStateResidencyTicks::UNDEFINED 2541678790500                       # Cumulative time (in ticks) in various power states
system.iocache.tags.tagsinuse                3.293929                       # Cycle average of tags in use
system.iocache.tags.total_refs                    179                       # Total number of references to valid blocks.
system.iocache.tags.sampled_refs                  179                       # Sample count of references to valid blocks.
system.iocache.tags.avg_refs                        1                       # Average number of references to valid blocks.
system.iocache.tags.warmup_cycle         2539275420000                       # Cycle when the warmup percentage was hit.
system.iocache.tags.occ_blocks::.tsunami.ide     3.293929                       # Average occupied blocks per requestor
system.iocache.tags.occ_percent::.tsunami.ide     0.205871                       # Average percentage of cache occupancy
system.iocache.tags.occ_percent::total       0.205871                       # Average percentage of cache occupancy
system.iocache.tags.occ_task_id_blocks::1023           16                       # Occupied blocks per task id
system.iocache.tags.age_task_id_blocks_1023::3           16                       # Occupied blocks per task id
system.iocache.tags.occ_task_id_percent::1023            1                       # Percentage of cache occupancy per task id
system.iocache.tags.tag_accesses                 1755                       # Number of tag accesses
system.iocache.tags.data_accesses                1755                       # Number of data accesses
system.membus.pwrStateResidencyTicks::UNDEFINED 2541678790500                       # Cumulative time (in ticks) in various power states
system.membus.trans_dist::ReadReq                 108                       # Transaction distribution
system.membus.trans_dist::ReadResp             127278                       # Transaction distribution
system.membus.trans_dist::WriteReq                 99                       # Transaction distribution
system.membus.trans_dist::WriteResp                99                       # Transaction distribution
system.membus.trans_dist::WritebackDirty        34844                       # Transaction distribution
system.membus.trans_dist::WritebackClean        85765                       # Transaction distribution
system.membus.trans_dist::CleanEvict            34109                       # Transaction distribution
system.membus.trans_dist::UpgradeReq               16                       # Transaction distribution
system.membus.trans_dist::ReadExReq             28986                       # Transaction distribution
system.membus.trans_dist::ReadExResp            28986                       # Transaction distribution
system.membus.trans_dist::ReadCleanReq          86355                       # Transaction distribution
system.membus.trans_dist::ReadSharedReq         40817                       # Transaction distribution
system.membus.trans_dist::BadAddressError            2                       # Transaction distribution
system.membus.trans_dist::InvalidateReq           192                       # Transaction distribution
system.membus.pkt_count_system.iocache.mem_side::system.mem_ctrls.port          374                       # Packet count per connected master and slave (bytes)
system.membus.pkt_count_system.iocache.mem_side::total          374                       # Packet count per connected master and slave (bytes)
system.membus.pkt_count_system.cpu.icache.mem_side::system.mem_ctrls.port       258413                       # Packet count per connected master and slave (bytes)
system.membus.pkt_count_system.cpu.icache.mem_side::total       258413                       # Packet count per connected master and slave (bytes)
system.membus.pkt_count_system.cpu.dcache.mem_side::system.bridge.slave          414                       # Packet count per connected master and slave (bytes)
system.membus.pkt_count_system.cpu.dcache.mem_side::system.mem_ctrls.port       208386                       # Packet count per connected master and slave (bytes)
system.membus.pkt_count_system.cpu.dcache.mem_side::system.membus.badaddr_responder.pio            4                       # Packet count per connected master and slave (bytes)
system.membus.pkt_count_system.cpu.dcache.mem_side::total       208804                       # Packet count per connected master and slave (bytes)
system.membus.pkt_count::total                 467591                       # Packet count per connected master and slave (bytes)
system.membus.pkt_size_system.iocache.mem_side::system.mem_ctrls.port        11264                       # Cumulative packet size per connected master and slave (bytes)
system.membus.pkt_size_system.iocache.mem_side::total        11264                       # Cumulative packet size per connected master and slave (bytes)
system.membus.pkt_size_system.cpu.icache.mem_side::system.mem_ctrls.port     11011712                       # Cumulative packet size per connected master and slave (bytes)
system.membus.pkt_size_system.cpu.icache.mem_side::total     11011712                       # Cumulative packet size per connected master and slave (bytes)
system.membus.pkt_size_system.cpu.dcache.mem_side::system.bridge.slave          433                       # Cumulative packet size per connected master and slave (bytes)
system.membus.pkt_size_system.cpu.dcache.mem_side::system.mem_ctrls.port      6685824                       # Cumulative packet size per connected master and slave (bytes)
system.membus.pkt_size_system.cpu.dcache.mem_side::total      6686257                       # Cumulative packet size per connected master and slave (bytes)
system.membus.pkt_size::total                17709233                       # Cumulative packet size per connected master and slave (bytes)
system.membus.snoops                               65                       # Total snoops (count)
system.membus.snoopTraffic                       4160                       # Total snoop traffic (bytes)
system.membus.snoop_fanout::samples            156573                       # Request fanout histogram
system.membus.snoop_fanout::mean             0.002746                       # Request fanout histogram
system.membus.snoop_fanout::stdev            0.052334                       # Request fanout histogram
system.membus.snoop_fanout::underflows              0      0.00%      0.00% # Request fanout histogram
system.membus.snoop_fanout::0                  156143     99.73%     99.73% # Request fanout histogram
system.membus.snoop_fanout::1                     430      0.27%    100.00% # Request fanout histogram
system.membus.snoop_fanout::2                       0      0.00%    100.00% # Request fanout histogram
system.membus.snoop_fanout::3                       0      0.00%    100.00% # Request fanout histogram
system.membus.snoop_fanout::overflows               0      0.00%    100.00% # Request fanout histogram
system.membus.snoop_fanout::min_value               0                       # Request fanout histogram
system.membus.snoop_fanout::max_value               1                       # Request fanout histogram
system.membus.snoop_fanout::total              156573                       # Request fanout histogram
system.membus.reqLayer0.occupancy              357000                       # Layer occupancy (ticks)
system.membus.reqLayer0.utilization               0.0                       # Layer utilization (%)
system.membus.reqLayer1.occupancy           815875035                       # Layer occupancy (ticks)
system.membus.reqLayer1.utilization               7.0                       # Layer utilization (%)
system.membus.reqLayer2.occupancy                3000                       # Layer occupancy (ticks)
system.membus.reqLayer2.utilization               0.0                       # Layer utilization (%)
system.membus.respLayer1.occupancy              17997                       # Layer occupancy (ticks)
system.membus.respLayer1.utilization              0.0                       # Layer utilization (%)
system.membus.respLayer3.occupancy          375474500                       # Layer occupancy (ticks)
system.membus.respLayer3.utilization              3.2                       # Layer utilization (%)
system.membus.badaddr_responder.pwrStateResidencyTicks::UNDEFINED 2541678790500                       # Cumulative time (in ticks) in various power states
system.membus.respLayer2.occupancy          457786500                       # Layer occupancy (ticks)
system.membus.respLayer2.utilization              3.9                       # Layer utilization (%)
system.clk_domain.clock                          1000                       # Clock period in ticks
system.tsunami.fake_uart1.pwrStateResidencyTicks::UNDEFINED 2541678790500                       # Cumulative time (in ticks) in various power states
system.tsunami.fake_uart2.pwrStateResidencyTicks::UNDEFINED 2541678790500                       # Cumulative time (in ticks) in various power states
system.tsunami.fake_uart3.pwrStateResidencyTicks::UNDEFINED 2541678790500                       # Cumulative time (in ticks) in various power states
system.tsunami.fake_uart4.pwrStateResidencyTicks::UNDEFINED 2541678790500                       # Cumulative time (in ticks) in various power states
system.tsunami.fake_ppc.pwrStateResidencyTicks::UNDEFINED 2541678790500                       # Cumulative time (in ticks) in various power states
system.tsunami.cchip.pwrStateResidencyTicks::UNDEFINED 2541678790500                       # Cumulative time (in ticks) in various power states
system.tsunami.io.pwrStateResidencyTicks::UNDEFINED 2541678790500                       # Cumulative time (in ticks) in various power states
system.tsunami.pchip.pwrStateResidencyTicks::UNDEFINED 2541678790500                       # Cumulative time (in ticks) in various power states
system.tsunami.fake_ata1.pwrStateResidencyTicks::UNDEFINED 2541678790500                       # Cumulative time (in ticks) in various power states
system.tsunami.fake_ata0.pwrStateResidencyTicks::UNDEFINED 2541678790500                       # Cumulative time (in ticks) in various power states
system.tsunami.backdoor.pwrStateResidencyTicks::UNDEFINED 2541678790500                       # Cumulative time (in ticks) in various power states
system.tsunami.fake_pnp_read3.pwrStateResidencyTicks::UNDEFINED 2541678790500                       # Cumulative time (in ticks) in various power states
system.tsunami.fake_pnp_read2.pwrStateResidencyTicks::UNDEFINED 2541678790500                       # Cumulative time (in ticks) in various power states
system.tsunami.fake_pnp_read1.pwrStateResidencyTicks::UNDEFINED 2541678790500                       # Cumulative time (in ticks) in various power states
system.tsunami.fake_pnp_read0.pwrStateResidencyTicks::UNDEFINED 2541678790500                       # Cumulative time (in ticks) in various power states
system.tsunami.fake_pnp_read7.pwrStateResidencyTicks::UNDEFINED 2541678790500                       # Cumulative time (in ticks) in various power states
system.tsunami.fake_pnp_read6.pwrStateResidencyTicks::UNDEFINED 2541678790500                       # Cumulative time (in ticks) in various power states
system.tsunami.fake_pnp_read5.pwrStateResidencyTicks::UNDEFINED 2541678790500                       # Cumulative time (in ticks) in various power states
system.tsunami.fake_pnp_read4.pwrStateResidencyTicks::UNDEFINED 2541678790500                       # Cumulative time (in ticks) in various power states
system.tsunami.fake_pnp_write.pwrStateResidencyTicks::UNDEFINED 2541678790500                       # Cumulative time (in ticks) in various power states
system.tsunami.fb.pwrStateResidencyTicks::UNDEFINED 2541678790500                       # Cumulative time (in ticks) in various power states
system.tsunami.fake_pnp_addr.pwrStateResidencyTicks::UNDEFINED 2541678790500                       # Cumulative time (in ticks) in various power states
system.tsunami.fake_OROM.pwrStateResidencyTicks::UNDEFINED 2541678790500                       # Cumulative time (in ticks) in various power states
system.tsunami.uart.pwrStateResidencyTicks::UNDEFINED 2541678790500                       # Cumulative time (in ticks) in various power states
system.tsunami.fake_sm_chip.pwrStateResidencyTicks::UNDEFINED 2541678790500                       # Cumulative time (in ticks) in various power states
system.tsunami.ethernet.pwrStateResidencyTicks::UNDEFINED 2541678790500                       # Cumulative time (in ticks) in various power states
system.tsunami.ide.pwrStateResidencyTicks::UNDEFINED 2541678790500                       # Cumulative time (in ticks) in various power states
system.cpu_voltage_domain.voltage                   1                       # Voltage in Volts
system.mem_ctrls.pwrStateResidencyTicks::UNDEFINED 2541678790500                       # Cumulative time (in ticks) in various power states
system.mem_ctrls.bytes_read::.cpu.inst        5522752                       # Number of bytes read from this memory
system.mem_ctrls.bytes_read::.cpu.data        4467072                       # Number of bytes read from this memory
system.mem_ctrls.bytes_read::total            9989824                       # Number of bytes read from this memory
system.mem_ctrls.bytes_inst_read::.cpu.inst      5522752                       # Number of instructions bytes read from this memory
system.mem_ctrls.bytes_inst_read::total       5522752                       # Number of instructions bytes read from this memory
system.mem_ctrls.bytes_written::.writebacks      2230016                       # Number of bytes written to this memory
system.mem_ctrls.bytes_written::total         2230016                       # Number of bytes written to this memory
system.mem_ctrls.num_reads::.cpu.inst           86293                       # Number of read requests responded to by this memory
system.mem_ctrls.num_reads::.cpu.data           69798                       # Number of read requests responded to by this memory
system.mem_ctrls.num_reads::total              156091                       # Number of read requests responded to by this memory
system.mem_ctrls.num_writes::.writebacks        34844                       # Number of write requests responded to by this memory
system.mem_ctrls.num_writes::total              34844                       # Number of write requests responded to by this memory
system.mem_ctrls.bw_read::.cpu.inst         473286297                       # Total read bandwidth from this memory (bytes/s)
system.mem_ctrls.bw_read::.cpu.data         382817111                       # Total read bandwidth from this memory (bytes/s)
system.mem_ctrls.bw_read::total             856103407                       # Total read bandwidth from this memory (bytes/s)
system.mem_ctrls.bw_inst_read::.cpu.inst    473286297                       # Instruction read bandwidth from this memory (bytes/s)
system.mem_ctrls.bw_inst_read::total        473286297                       # Instruction read bandwidth from this memory (bytes/s)
system.mem_ctrls.bw_write::.writebacks      191106900                       # Write bandwidth from this memory (bytes/s)
system.mem_ctrls.bw_write::total            191106900                       # Write bandwidth from this memory (bytes/s)
system.mem_ctrls.bw_total::.writebacks      191106900                       # Total bandwidth to/from this memory (bytes/s)
system.mem_ctrls.bw_total::.cpu.inst        473286297                       # Total bandwidth to/from this memory (bytes/s)
system.mem_ctrls.bw_total::.cpu.data        382817111                       # Total bandwidth to/from this memory (bytes/s)
system.mem_ctrls.bw_total::total           1047210307                       # Total bandwidth to/from this memory (bytes/s)
system.mem_ctrls.avgPriority_.writebacks::samples    118339.00                       # Average QoS priority value for accepted requests
system.mem_ctrls.avgPriority_.cpu.inst::samples     76471.00                       # Average QoS priority value for accepted requests
system.mem_ctrls.avgPriority_.cpu.data::samples     69318.00                       # Average QoS priority value for accepted requests
system.mem_ctrls.priorityMinLatency      0.000000018750                       # per QoS priority minimum request to response latency (s)
system.mem_ctrls.priorityMaxLatency      0.000138555750                       # per QoS priority maximum request to response latency (s)
system.mem_ctrls.numReadWriteTurnArounds         7290                       # Number of turnarounds from READ to WRITE
system.mem_ctrls.numWriteReadTurnArounds         7290                       # Number of turnarounds from WRITE to READ
system.mem_ctrls.numStayReadState              404330                       # Number of times bus staying in READ state
system.mem_ctrls.numStayWriteState             111103                       # Number of times bus staying in WRITE state
system.mem_ctrls.readReqs                      156091                       # Number of read requests accepted
system.mem_ctrls.writeReqs                     120400                       # Number of write requests accepted
system.mem_ctrls.readBursts                    156091                       # Number of DRAM read bursts, including those serviced by the write queue
system.mem_ctrls.writeBursts                   120400                       # Number of DRAM write bursts, including those merged in the write queue
system.mem_ctrls.servicedByWrQ                  10302                       # Number of DRAM read bursts serviced by the write queue
system.mem_ctrls.mergedWrBursts                  2061                       # Number of DRAM write bursts merged with an existing one
system.mem_ctrls.neitherReadNorWriteReqs            0                       # Number of requests that are neither read nor write
system.mem_ctrls.perBankRdBursts::0              8771                       # Per bank write bursts
system.mem_ctrls.perBankRdBursts::1              6727                       # Per bank write bursts
system.mem_ctrls.perBankRdBursts::2              9578                       # Per bank write bursts
system.mem_ctrls.perBankRdBursts::3              7054                       # Per bank write bursts
system.mem_ctrls.perBankRdBursts::4              8341                       # Per bank write bursts
system.mem_ctrls.perBankRdBursts::5             10054                       # Per bank write bursts
system.mem_ctrls.perBankRdBursts::6              8464                       # Per bank write bursts
system.mem_ctrls.perBankRdBursts::7              8697                       # Per bank write bursts
system.mem_ctrls.perBankRdBursts::8             11499                       # Per bank write bursts
system.mem_ctrls.perBankRdBursts::9              9234                       # Per bank write bursts
system.mem_ctrls.perBankRdBursts::10            10377                       # Per bank write bursts
system.mem_ctrls.perBankRdBursts::11            12111                       # Per bank write bursts
system.mem_ctrls.perBankRdBursts::12             8868                       # Per bank write bursts
system.mem_ctrls.perBankRdBursts::13            13535                       # Per bank write bursts
system.mem_ctrls.perBankRdBursts::14             5569                       # Per bank write bursts
system.mem_ctrls.perBankRdBursts::15             6910                       # Per bank write bursts
system.mem_ctrls.perBankWrBursts::0              7044                       # Per bank write bursts
system.mem_ctrls.perBankWrBursts::1              4567                       # Per bank write bursts
system.mem_ctrls.perBankWrBursts::2              8143                       # Per bank write bursts
system.mem_ctrls.perBankWrBursts::3              7839                       # Per bank write bursts
system.mem_ctrls.perBankWrBursts::4              7631                       # Per bank write bursts
system.mem_ctrls.perBankWrBursts::5              9880                       # Per bank write bursts
system.mem_ctrls.perBankWrBursts::6              7199                       # Per bank write bursts
system.mem_ctrls.perBankWrBursts::7              6883                       # Per bank write bursts
system.mem_ctrls.perBankWrBursts::8             10356                       # Per bank write bursts
system.mem_ctrls.perBankWrBursts::9              8432                       # Per bank write bursts
system.mem_ctrls.perBankWrBursts::10             7720                       # Per bank write bursts
system.mem_ctrls.perBankWrBursts::11             8133                       # Per bank write bursts
system.mem_ctrls.perBankWrBursts::12             5464                       # Per bank write bursts
system.mem_ctrls.perBankWrBursts::13             9982                       # Per bank write bursts
system.mem_ctrls.perBankWrBursts::14             3231                       # Per bank write bursts
system.mem_ctrls.perBankWrBursts::15             5814                       # Per bank write bursts
system.mem_ctrls.avgRdQLen                       1.09                       # Average read queue length when enqueuing
system.mem_ctrls.avgWrQLen                      25.74                       # Average write queue length when enqueuing
system.mem_ctrls.totQLat                   1997397250                       # Total ticks spent queuing
system.mem_ctrls.totBusLat                  728945000                       # Total ticks spent in databus transfers
system.mem_ctrls.totMemAccLat              4730941000                       # Total ticks spent from burst creation until serviced by the DRAM
system.mem_ctrls.avgQLat                     13700.60                       # Average queueing delay per DRAM burst
system.mem_ctrls.avgBusLat                    5000.00                       # Average bus latency per DRAM burst
system.mem_ctrls.avgMemAccLat                32450.60                       # Average memory access latency per DRAM burst
system.mem_ctrls.numRdRetry                         0                       # Number of times read queue was full causing retry
system.mem_ctrls.numWrRetry                         0                       # Number of times write queue was full causing retry
system.mem_ctrls.readRowHits                   103386                       # Number of row buffer hits during reads
system.mem_ctrls.writeRowHits                   79811                       # Number of row buffer hits during writes
system.mem_ctrls.readRowHitRate                 70.91                       # Row buffer hit rate for reads
system.mem_ctrls.writeRowHitRate                67.44                       # Row buffer hit rate for writes
system.mem_ctrls.readPktSize::0                     0                       # Read request sizes (log2)
system.mem_ctrls.readPktSize::1                     0                       # Read request sizes (log2)
system.mem_ctrls.readPktSize::2                     0                       # Read request sizes (log2)
system.mem_ctrls.readPktSize::3                     0                       # Read request sizes (log2)
system.mem_ctrls.readPktSize::4                     0                       # Read request sizes (log2)
system.mem_ctrls.readPktSize::5                     0                       # Read request sizes (log2)
system.mem_ctrls.readPktSize::6                156091                       # Read request sizes (log2)
system.mem_ctrls.writePktSize::0                    0                       # Write request sizes (log2)
system.mem_ctrls.writePktSize::1                    0                       # Write request sizes (log2)
system.mem_ctrls.writePktSize::2                    0                       # Write request sizes (log2)
system.mem_ctrls.writePktSize::3                    0                       # Write request sizes (log2)
system.mem_ctrls.writePktSize::4                    0                       # Write request sizes (log2)
system.mem_ctrls.writePktSize::5                    0                       # Write request sizes (log2)
system.mem_ctrls.writePktSize::6               120400                       # Write request sizes (log2)
system.mem_ctrls.rdQLenPdf::0                  133582                       # What read queue length does an incoming req see
system.mem_ctrls.rdQLenPdf::1                   11897                       # What read queue length does an incoming req see
system.mem_ctrls.rdQLenPdf::2                     310                       # What read queue length does an incoming req see
system.mem_ctrls.rdQLenPdf::3                       0                       # What read queue length does an incoming req see
system.mem_ctrls.rdQLenPdf::4                       0                       # What read queue length does an incoming req see
system.mem_ctrls.rdQLenPdf::5                       0                       # What read queue length does an incoming req see
system.mem_ctrls.rdQLenPdf::6                       0                       # What read queue length does an incoming req see
system.mem_ctrls.rdQLenPdf::7                       0                       # What read queue length does an incoming req see
system.mem_ctrls.rdQLenPdf::8                       0                       # What read queue length does an incoming req see
system.mem_ctrls.rdQLenPdf::9                       0                       # What read queue length does an incoming req see
system.mem_ctrls.rdQLenPdf::10                      0                       # What read queue length does an incoming req see
system.mem_ctrls.rdQLenPdf::11                      0                       # What read queue length does an incoming req see
system.mem_ctrls.rdQLenPdf::12                      0                       # What read queue length does an incoming req see
system.mem_ctrls.rdQLenPdf::13                      0                       # What read queue length does an incoming req see
system.mem_ctrls.rdQLenPdf::14                      0                       # What read queue length does an incoming req see
system.mem_ctrls.rdQLenPdf::15                      0                       # What read queue length does an incoming req see
system.mem_ctrls.rdQLenPdf::16                      0                       # What read queue length does an incoming req see
system.mem_ctrls.rdQLenPdf::17                      0                       # What read queue length does an incoming req see
system.mem_ctrls.rdQLenPdf::18                      0                       # What read queue length does an incoming req see
system.mem_ctrls.rdQLenPdf::19                      0                       # What read queue length does an incoming req see
system.mem_ctrls.rdQLenPdf::20                      0                       # What read queue length does an incoming req see
system.mem_ctrls.rdQLenPdf::21                      0                       # What read queue length does an incoming req see
system.mem_ctrls.rdQLenPdf::22                      0                       # What read queue length does an incoming req see
system.mem_ctrls.rdQLenPdf::23                      0                       # What read queue length does an incoming req see
system.mem_ctrls.rdQLenPdf::24                      0                       # What read queue length does an incoming req see
system.mem_ctrls.rdQLenPdf::25                      0                       # What read queue length does an incoming req see
system.mem_ctrls.rdQLenPdf::26                      0                       # What read queue length does an incoming req see
system.mem_ctrls.rdQLenPdf::27                      0                       # What read queue length does an incoming req see
system.mem_ctrls.rdQLenPdf::28                      0                       # What read queue length does an incoming req see
system.mem_ctrls.rdQLenPdf::29                      0                       # What read queue length does an incoming req see
system.mem_ctrls.rdQLenPdf::30                      0                       # What read queue length does an incoming req see
system.mem_ctrls.rdQLenPdf::31                      0                       # What read queue length does an incoming req see
system.mem_ctrls.wrQLenPdf::0                       1                       # What write queue length does an incoming req see
system.mem_ctrls.wrQLenPdf::1                       1                       # What write queue length does an incoming req see
system.mem_ctrls.wrQLenPdf::2                       1                       # What write queue length does an incoming req see
system.mem_ctrls.wrQLenPdf::3                       1                       # What write queue length does an incoming req see
system.mem_ctrls.wrQLenPdf::4                       1                       # What write queue length does an incoming req see
system.mem_ctrls.wrQLenPdf::5                       1                       # What write queue length does an incoming req see
system.mem_ctrls.wrQLenPdf::6                       1                       # What write queue length does an incoming req see
system.mem_ctrls.wrQLenPdf::7                       1                       # What write queue length does an incoming req see
system.mem_ctrls.wrQLenPdf::8                       1                       # What write queue length does an incoming req see
system.mem_ctrls.wrQLenPdf::9                       1                       # What write queue length does an incoming req see
system.mem_ctrls.wrQLenPdf::10                      1                       # What write queue length does an incoming req see
system.mem_ctrls.wrQLenPdf::11                      1                       # What write queue length does an incoming req see
system.mem_ctrls.wrQLenPdf::12                      1                       # What write queue length does an incoming req see
system.mem_ctrls.wrQLenPdf::13                      1                       # What write queue length does an incoming req see
system.mem_ctrls.wrQLenPdf::14                      1                       # What write queue length does an incoming req see
system.mem_ctrls.wrQLenPdf::15                    621                       # What write queue length does an incoming req see
system.mem_ctrls.wrQLenPdf::16                    718                       # What write queue length does an incoming req see
system.mem_ctrls.wrQLenPdf::17                   6620                       # What write queue length does an incoming req see
system.mem_ctrls.wrQLenPdf::18                   7292                       # What write queue length does an incoming req see
system.mem_ctrls.wrQLenPdf::19                   7426                       # What write queue length does an incoming req see
system.mem_ctrls.wrQLenPdf::20                   7382                       # What write queue length does an incoming req see
system.mem_ctrls.wrQLenPdf::21                   7381                       # What write queue length does an incoming req see
system.mem_ctrls.wrQLenPdf::22                   7463                       # What write queue length does an incoming req see
system.mem_ctrls.wrQLenPdf::23                   7383                       # What write queue length does an incoming req see
system.mem_ctrls.wrQLenPdf::24                   7361                       # What write queue length does an incoming req see
system.mem_ctrls.wrQLenPdf::25                   7357                       # What write queue length does an incoming req see
system.mem_ctrls.wrQLenPdf::26                   7377                       # What write queue length does an incoming req see
system.mem_ctrls.wrQLenPdf::27                   7337                       # What write queue length does an incoming req see
system.mem_ctrls.wrQLenPdf::28                   7330                       # What write queue length does an incoming req see
system.mem_ctrls.wrQLenPdf::29                   7340                       # What write queue length does an incoming req see
system.mem_ctrls.wrQLenPdf::30                   7304                       # What write queue length does an incoming req see
system.mem_ctrls.wrQLenPdf::31                   7297                       # What write queue length does an incoming req see
system.mem_ctrls.wrQLenPdf::32                   7291                       # What write queue length does an incoming req see
system.mem_ctrls.wrQLenPdf::33                     18                       # What write queue length does an incoming req see
system.mem_ctrls.wrQLenPdf::34                     13                       # What write queue length does an incoming req see
system.mem_ctrls.wrQLenPdf::35                      6                       # What write queue length does an incoming req see
system.mem_ctrls.wrQLenPdf::36                      3                       # What write queue length does an incoming req see
system.mem_ctrls.wrQLenPdf::37                      2                       # What write queue length does an incoming req see
system.mem_ctrls.wrQLenPdf::38                      2                       # What write queue length does an incoming req see
system.mem_ctrls.wrQLenPdf::39                      0                       # What write queue length does an incoming req see
system.mem_ctrls.wrQLenPdf::40                      0                       # What write queue length does an incoming req see
system.mem_ctrls.wrQLenPdf::41                      0                       # What write queue length does an incoming req see
system.mem_ctrls.wrQLenPdf::42                      0                       # What write queue length does an incoming req see
system.mem_ctrls.wrQLenPdf::43                      0                       # What write queue length does an incoming req see
system.mem_ctrls.wrQLenPdf::44                      0                       # What write queue length does an incoming req see
system.mem_ctrls.wrQLenPdf::45                      0                       # What write queue length does an incoming req see
system.mem_ctrls.wrQLenPdf::46                      0                       # What write queue length does an incoming req see
system.mem_ctrls.wrQLenPdf::47                      0                       # What write queue length does an incoming req see
system.mem_ctrls.wrQLenPdf::48                      0                       # What write queue length does an incoming req see
system.mem_ctrls.wrQLenPdf::49                      0                       # What write queue length does an incoming req see
system.mem_ctrls.wrQLenPdf::50                      0                       # What write queue length does an incoming req see
system.mem_ctrls.wrQLenPdf::51                      0                       # What write queue length does an incoming req see
system.mem_ctrls.wrQLenPdf::52                      0                       # What write queue length does an incoming req see
system.mem_ctrls.wrQLenPdf::53                      0                       # What write queue length does an incoming req see
system.mem_ctrls.wrQLenPdf::54                      0                       # What write queue length does an incoming req see
system.mem_ctrls.wrQLenPdf::55                      0                       # What write queue length does an incoming req see
system.mem_ctrls.wrQLenPdf::56                      0                       # What write queue length does an incoming req see
system.mem_ctrls.wrQLenPdf::57                      0                       # What write queue length does an incoming req see
system.mem_ctrls.wrQLenPdf::58                      0                       # What write queue length does an incoming req see
system.mem_ctrls.wrQLenPdf::59                      0                       # What write queue length does an incoming req see
system.mem_ctrls.wrQLenPdf::60                      0                       # What write queue length does an incoming req see
system.mem_ctrls.wrQLenPdf::61                      0                       # What write queue length does an incoming req see
system.mem_ctrls.wrQLenPdf::62                      0                       # What write queue length does an incoming req see
system.mem_ctrls.wrQLenPdf::63                      0                       # What write queue length does an incoming req see
system.mem_ctrls.bytesPerActivate::samples        80898                       # Bytes accessed per row activation
system.mem_ctrls.bytesPerActivate::mean    208.901481                       # Bytes accessed per row activation
system.mem_ctrls.bytesPerActivate::gmean   140.394331                       # Bytes accessed per row activation
system.mem_ctrls.bytesPerActivate::stdev   225.618660                       # Bytes accessed per row activation
system.mem_ctrls.bytesPerActivate::0-127        34243     42.33%     42.33% # Bytes accessed per row activation
system.mem_ctrls.bytesPerActivate::128-255        23988     29.65%     71.98% # Bytes accessed per row activation
system.mem_ctrls.bytesPerActivate::256-383        10013     12.38%     84.36% # Bytes accessed per row activation
system.mem_ctrls.bytesPerActivate::384-511         4575      5.66%     90.01% # Bytes accessed per row activation
system.mem_ctrls.bytesPerActivate::512-639         2316      2.86%     92.88% # Bytes accessed per row activation
system.mem_ctrls.bytesPerActivate::640-767         1437      1.78%     94.65% # Bytes accessed per row activation
system.mem_ctrls.bytesPerActivate::768-895          935      1.16%     95.81% # Bytes accessed per row activation
system.mem_ctrls.bytesPerActivate::896-1023          584      0.72%     96.53% # Bytes accessed per row activation
system.mem_ctrls.bytesPerActivate::1024-1151         2807      3.47%    100.00% # Bytes accessed per row activation
system.mem_ctrls.bytesPerActivate::total        80898                       # Bytes accessed per row activation
system.mem_ctrls.rdPerTurnAround::samples         7290                       # Reads before turning the bus around for writes
system.mem_ctrls.rdPerTurnAround::mean      19.997942                       # Reads before turning the bus around for writes
system.mem_ctrls.rdPerTurnAround::gmean     18.380745                       # Reads before turning the bus around for writes
system.mem_ctrls.rdPerTurnAround::stdev     12.833243                       # Reads before turning the bus around for writes
system.mem_ctrls.rdPerTurnAround::0-15           1309     17.96%     17.96% # Reads before turning the bus around for writes
system.mem_ctrls.rdPerTurnAround::16-31          5505     75.51%     93.47% # Reads before turning the bus around for writes
system.mem_ctrls.rdPerTurnAround::32-47           290      3.98%     97.45% # Reads before turning the bus around for writes
[...]
system.cpu.icache.ReadReq_mshr_misses::total       384161                       # number of ReadReq MSHR misses
system.cpu.icache.ReadReq_mshr_miss_latency::.cpu.inst  22682681000                       # number of ReadReq MSHR miss cycles
system.cpu.icache.ReadReq_mshr_miss_latency::total  22682681000                       # number of ReadReq MSHR miss cycles
system.cpu.icache.ReadReq_mshr_miss_rate::.cpu.inst     0.004481                       # mshr miss rate for ReadReq accesses
system.cpu.icache.ReadReq_mshr_miss_rate::total     0.004481                       # mshr miss rate for ReadReq accesses
system.cpu.icache.ReadReq_avg_mshr_miss_latency::.cpu.inst 59044.726039                       # average ReadReq mshr miss latency
system.cpu.icache.ReadReq_avg_mshr_miss_latency::total 59044.726039                       # average ReadReq mshr miss latency
system.cpu.icache.tags.pwrStateResidencyTicks::UNDEFINED 305020444000                       # Cumulative time (in ticks) in various power states
system.cpu.icache.tags.tagsinuse                  512                       # Cycle average of tags in use
system.cpu.icache.tags.total_refs            85952170                       # Total number of references to valid blocks.
system.cpu.icache.tags.sampled_refs            384674                       # Sample count of references to valid blocks.
system.cpu.icache.tags.avg_refs            223.441590                       # Average number of references to valid blocks.
system.cpu.icache.tags.warmup_cycle                 0                       # Cycle when the warmup percentage was hit.
system.cpu.icache.tags.occ_blocks::.cpu.inst          512                       # Average occupied blocks per requestor
system.cpu.icache.tags.occ_percent::.cpu.inst            1                       # Average percentage of cache occupancy
system.cpu.icache.tags.occ_percent::total            1                       # Average percentage of cache occupancy
system.cpu.icache.tags.occ_task_id_blocks::1024          512                       # Occupied blocks per task id
system.cpu.icache.tags.age_task_id_blocks_1024::2          331                       # Occupied blocks per task id
system.cpu.icache.tags.age_task_id_blocks_1024::3          152                       # Occupied blocks per task id
system.cpu.icache.tags.age_task_id_blocks_1024::4           29                       # Occupied blocks per task id
system.cpu.icache.tags.occ_task_id_percent::1024            1                       # Percentage of cache occupancy per task id
system.cpu.icache.tags.tag_accesses         171831364                       # Number of tag accesses
system.cpu.icache.tags.data_accesses        171831364                       # Number of data accesses
system.cpu.dcache.pwrStateResidencyTicks::UNDEFINED 305020444000                       # Cumulative time (in ticks) in various power states
system.cpu.dcache.demand_hits::.cpu.data    111229025                       # number of demand (read+write) hits
system.cpu.dcache.demand_hits::total        111229025                       # number of demand (read+write) hits
system.cpu.dcache.overall_hits::.cpu.data    111229025                       # number of overall hits
system.cpu.dcache.overall_hits::total       111229025                       # number of overall hits
system.cpu.dcache.demand_misses::.cpu.data      1545520                       # number of demand (read+write) misses
system.cpu.dcache.demand_misses::total        1545520                       # number of demand (read+write) misses
system.cpu.dcache.overall_misses::.cpu.data      1545520                       # number of overall misses
system.cpu.dcache.overall_misses::total       1545520                       # number of overall misses
system.cpu.dcache.demand_miss_latency::.cpu.data  94845514000                       # number of demand (read+write) miss cycles
system.cpu.dcache.demand_miss_latency::total  94845514000                       # number of demand (read+write) miss cycles
system.cpu.dcache.overall_miss_latency::.cpu.data  94845514000                       # number of overall miss cycles
system.cpu.dcache.overall_miss_latency::total  94845514000                       # number of overall miss cycles
system.cpu.dcache.demand_accesses::.cpu.data    112774545                       # number of demand (read+write) accesses
system.cpu.dcache.demand_accesses::total    112774545                       # number of demand (read+write) accesses
system.cpu.dcache.overall_accesses::.cpu.data    112774545                       # number of overall (read+write) accesses
system.cpu.dcache.overall_accesses::total    112774545                       # number of overall (read+write) accesses
system.cpu.dcache.demand_miss_rate::.cpu.data     0.013705                       # miss rate for demand accesses
system.cpu.dcache.demand_miss_rate::total     0.013705                       # miss rate for demand accesses
system.cpu.dcache.overall_miss_rate::.cpu.data     0.013705                       # miss rate for overall accesses
system.cpu.dcache.overall_miss_rate::total     0.013705                       # miss rate for overall accesses
system.cpu.dcache.demand_avg_miss_latency::.cpu.data 61368.027589                       # average overall miss latency
system.cpu.dcache.demand_avg_miss_latency::total 61368.027589                       # average overall miss latency
system.cpu.dcache.overall_avg_miss_latency::.cpu.data 61368.027589                       # average overall miss latency
system.cpu.dcache.overall_avg_miss_latency::total 61368.027589                       # average overall miss latency
system.cpu.dcache.blocked_cycles::no_mshrs            0                       # number of cycles access was blocked
system.cpu.dcache.blocked_cycles::no_targets            0                       # number of cycles access was blocked
system.cpu.dcache.blocked::no_mshrs                 0                       # number of cycles access was blocked
system.cpu.dcache.blocked::no_targets               0                       # number of cycles access was blocked
system.cpu.dcache.avg_blocked_cycles::no_mshrs          nan                       # average number of cycles each access was blocked
system.cpu.dcache.avg_blocked_cycles::no_targets          nan                       # average number of cycles each access was blocked
system.cpu.dcache.writebacks::.writebacks       690868                       # number of writebacks
system.cpu.dcache.writebacks::total            690868                       # number of writebacks
system.cpu.dcache.demand_mshr_hits::.cpu.data       482578                       # number of demand (read+write) MSHR hits
system.cpu.dcache.demand_mshr_hits::total       482578                       # number of demand (read+write) MSHR hits
system.cpu.dcache.overall_mshr_hits::.cpu.data       482578                       # number of overall MSHR hits
system.cpu.dcache.overall_mshr_hits::total       482578                       # number of overall MSHR hits
system.cpu.dcache.demand_mshr_misses::.cpu.data      1062942                       # number of demand (read+write) MSHR misses
system.cpu.dcache.demand_mshr_misses::total      1062942                       # number of demand (read+write) MSHR misses
system.cpu.dcache.overall_mshr_misses::.cpu.data      1062942                       # number of overall MSHR misses
system.cpu.dcache.overall_mshr_misses::total      1062942                       # number of overall MSHR misses
system.cpu.dcache.overall_mshr_uncacheable_misses::.cpu.data          313                       # number of overall MSHR uncacheable misses
system.cpu.dcache.overall_mshr_uncacheable_misses::total          313                       # number of overall MSHR uncacheable misses
system.cpu.dcache.demand_mshr_miss_latency::.cpu.data  63972722000                       # number of demand (read+write) MSHR miss cycles
system.cpu.dcache.demand_mshr_miss_latency::total  63972722000                       # number of demand (read+write) MSHR miss cycles
system.cpu.dcache.overall_mshr_miss_latency::.cpu.data  63972722000                       # number of overall MSHR miss cycles
system.cpu.dcache.overall_mshr_miss_latency::total  63972722000                       # number of overall MSHR miss cycles
system.cpu.dcache.demand_mshr_miss_rate::.cpu.data     0.009425                       # mshr miss rate for demand accesses
system.cpu.dcache.demand_mshr_miss_rate::total     0.009425                       # mshr miss rate for demand accesses
system.cpu.dcache.overall_mshr_miss_rate::.cpu.data     0.009425                       # mshr miss rate for overall accesses
system.cpu.dcache.overall_mshr_miss_rate::total     0.009425                       # mshr miss rate for overall accesses
system.cpu.dcache.demand_avg_mshr_miss_latency::.cpu.data 60184.583919                       # average overall mshr miss latency
system.cpu.dcache.demand_avg_mshr_miss_latency::total 60184.583919                       # average overall mshr miss latency
system.cpu.dcache.overall_avg_mshr_miss_latency::.cpu.data 60184.583919                       # average overall mshr miss latency
system.cpu.dcache.overall_avg_mshr_miss_latency::total 60184.583919                       # average overall mshr miss latency
system.cpu.dcache.replacements                1067255                       # number of replacements
system.cpu.dcache.ReadReq_hits::.cpu.data     86514240                       # number of ReadReq hits
system.cpu.dcache.ReadReq_hits::total        86514240                       # number of ReadReq hits
system.cpu.dcache.ReadReq_misses::.cpu.data       761121                       # number of ReadReq misses
system.cpu.dcache.ReadReq_misses::total        761121                       # number of ReadReq misses
system.cpu.dcache.ReadReq_miss_latency::.cpu.data  47274706000                       # number of ReadReq miss cycles
system.cpu.dcache.ReadReq_miss_latency::total  47274706000                       # number of ReadReq miss cycles
system.cpu.dcache.ReadReq_accesses::.cpu.data     87275361                       # number of ReadReq accesses(hits+misses)
system.cpu.dcache.ReadReq_accesses::total     87275361                       # number of ReadReq accesses(hits+misses)
system.cpu.dcache.ReadReq_miss_rate::.cpu.data     0.008721                       # miss rate for ReadReq accesses
system.cpu.dcache.ReadReq_miss_rate::total     0.008721                       # miss rate for ReadReq accesses
system.cpu.dcache.ReadReq_avg_miss_latency::.cpu.data 62111.945407                       # average ReadReq miss latency
system.cpu.dcache.ReadReq_avg_miss_latency::total 62111.945407                       # average ReadReq miss latency
system.cpu.dcache.ReadReq_mshr_hits::.cpu.data        97042                       # number of ReadReq MSHR hits
system.cpu.dcache.ReadReq_mshr_hits::total        97042                       # number of ReadReq MSHR hits
system.cpu.dcache.ReadReq_mshr_misses::.cpu.data       664079                       # number of ReadReq MSHR misses
system.cpu.dcache.ReadReq_mshr_misses::total       664079                       # number of ReadReq MSHR misses
system.cpu.dcache.ReadReq_mshr_miss_latency::.cpu.data  40684822000                       # number of ReadReq MSHR miss cycles
system.cpu.dcache.ReadReq_mshr_miss_latency::total  40684822000                       # number of ReadReq MSHR miss cycles
system.cpu.dcache.ReadReq_mshr_miss_rate::.cpu.data     0.007609                       # mshr miss rate for ReadReq accesses
system.cpu.dcache.ReadReq_mshr_miss_rate::total     0.007609                       # mshr miss rate for ReadReq accesses
system.cpu.dcache.ReadReq_avg_mshr_miss_latency::.cpu.data 61265.033226                       # average ReadReq mshr miss latency
system.cpu.dcache.ReadReq_avg_mshr_miss_latency::total 61265.033226                       # average ReadReq mshr miss latency
system.cpu.dcache.WriteReq_hits::.cpu.data     24714785                       # number of WriteReq hits
system.cpu.dcache.WriteReq_hits::total       24714785                       # number of WriteReq hits
system.cpu.dcache.WriteReq_misses::.cpu.data       784399                       # number of WriteReq misses
system.cpu.dcache.WriteReq_misses::total       784399                       # number of WriteReq misses
system.cpu.dcache.WriteReq_miss_latency::.cpu.data  47570808000                       # number of WriteReq miss cycles
system.cpu.dcache.WriteReq_miss_latency::total  47570808000                       # number of WriteReq miss cycles
system.cpu.dcache.WriteReq_accesses::.cpu.data     25499184                       # number of WriteReq accesses(hits+misses)
system.cpu.dcache.WriteReq_accesses::total     25499184                       # number of WriteReq accesses(hits+misses)
system.cpu.dcache.WriteReq_miss_rate::.cpu.data     0.030762                       # miss rate for WriteReq accesses
system.cpu.dcache.WriteReq_miss_rate::total     0.030762                       # miss rate for WriteReq accesses
system.cpu.dcache.WriteReq_avg_miss_latency::.cpu.data 60646.186443                       # average WriteReq miss latency
system.cpu.dcache.WriteReq_avg_miss_latency::total 60646.186443                       # average WriteReq miss latency
system.cpu.dcache.WriteReq_mshr_hits::.cpu.data       385536                       # number of WriteReq MSHR hits
system.cpu.dcache.WriteReq_mshr_hits::total       385536                       # number of WriteReq MSHR hits
system.cpu.dcache.WriteReq_mshr_misses::.cpu.data       398863                       # number of WriteReq MSHR misses
system.cpu.dcache.WriteReq_mshr_misses::total       398863                       # number of WriteReq MSHR misses
system.cpu.dcache.WriteReq_mshr_uncacheable::.cpu.data          313                       # number of WriteReq MSHR uncacheable
system.cpu.dcache.WriteReq_mshr_uncacheable::total          313                       # number of WriteReq MSHR uncacheable
system.cpu.dcache.WriteReq_mshr_miss_latency::.cpu.data  23287900000                       # number of WriteReq MSHR miss cycles
system.cpu.dcache.WriteReq_mshr_miss_latency::total  23287900000                       # number of WriteReq MSHR miss cycles
system.cpu.dcache.WriteReq_mshr_miss_rate::.cpu.data     0.015642                       # mshr miss rate for WriteReq accesses
system.cpu.dcache.WriteReq_mshr_miss_rate::total     0.015642                       # mshr miss rate for WriteReq accesses
system.cpu.dcache.WriteReq_avg_mshr_miss_latency::.cpu.data 58385.711385                       # average WriteReq mshr miss latency
system.cpu.dcache.WriteReq_avg_mshr_miss_latency::total 58385.711385                       # average WriteReq mshr miss latency
system.cpu.dcache.LoadLockedReq_hits::.cpu.data        66665                       # number of LoadLockedReq hits
system.cpu.dcache.LoadLockedReq_hits::total        66665                       # number of LoadLockedReq hits
system.cpu.dcache.LoadLockedReq_misses::.cpu.data         4315                       # number of LoadLockedReq misses
system.cpu.dcache.LoadLockedReq_misses::total         4315                       # number of LoadLockedReq misses
system.cpu.dcache.LoadLockedReq_miss_latency::.cpu.data    304410500                       # number of LoadLockedReq miss cycles
system.cpu.dcache.LoadLockedReq_miss_latency::total    304410500                       # number of LoadLockedReq miss cycles
system.cpu.dcache.LoadLockedReq_accesses::.cpu.data        70980                       # number of LoadLockedReq accesses(hits+misses)
system.cpu.dcache.LoadLockedReq_accesses::total        70980                       # number of LoadLockedReq accesses(hits+misses)
system.cpu.dcache.LoadLockedReq_miss_rate::.cpu.data     0.060792                       # miss rate for LoadLockedReq accesses
system.cpu.dcache.LoadLockedReq_miss_rate::total     0.060792                       # miss rate for LoadLockedReq accesses
system.cpu.dcache.LoadLockedReq_avg_miss_latency::.cpu.data 70547.045191                       # average LoadLockedReq miss latency
system.cpu.dcache.LoadLockedReq_avg_miss_latency::total 70547.045191                       # average LoadLockedReq miss latency
system.cpu.dcache.LoadLockedReq_mshr_misses::.cpu.data         4315                       # number of LoadLockedReq MSHR misses
system.cpu.dcache.LoadLockedReq_mshr_misses::total         4315                       # number of LoadLockedReq MSHR misses
system.cpu.dcache.LoadLockedReq_mshr_miss_latency::.cpu.data    300095500                       # number of LoadLockedReq MSHR miss cycles
system.cpu.dcache.LoadLockedReq_mshr_miss_latency::total    300095500                       # number of LoadLockedReq MSHR miss cycles
system.cpu.dcache.LoadLockedReq_mshr_miss_rate::.cpu.data     0.060792                       # mshr miss rate for LoadLockedReq accesses
system.cpu.dcache.LoadLockedReq_mshr_miss_rate::total     0.060792                       # mshr miss rate for LoadLockedReq accesses
system.cpu.dcache.LoadLockedReq_avg_mshr_miss_latency::.cpu.data 69547.045191                       # average LoadLockedReq mshr miss latency
system.cpu.dcache.LoadLockedReq_avg_mshr_miss_latency::total 69547.045191                       # average LoadLockedReq mshr miss latency
system.cpu.dcache.StoreCondReq_hits::.cpu.data        70926                       # number of StoreCondReq hits
system.cpu.dcache.StoreCondReq_hits::total        70926                       # number of StoreCondReq hits
system.cpu.dcache.StoreCondReq_accesses::.cpu.data        70926                       # number of StoreCondReq accesses(hits+misses)
system.cpu.dcache.StoreCondReq_accesses::total        70926                       # number of StoreCondReq accesses(hits+misses)
system.cpu.dcache.tags.pwrStateResidencyTicks::UNDEFINED 305020444000                       # Cumulative time (in ticks) in various power states
system.cpu.dcache.tags.tagsinuse                 1024                       # Cycle average of tags in use
system.cpu.dcache.tags.total_refs           112850727                       # Total number of references to valid blocks.
system.cpu.dcache.tags.sampled_refs           1068279                       # Sample count of references to valid blocks.
system.cpu.dcache.tags.avg_refs            105.637878                       # Average number of references to valid blocks.
system.cpu.dcache.tags.warmup_cycle                 0                       # Cycle when the warmup percentage was hit.
system.cpu.dcache.tags.occ_blocks::.cpu.data         1024                       # Average occupied blocks per requestor
system.cpu.dcache.tags.occ_percent::.cpu.data            1                       # Average percentage of cache occupancy
system.cpu.dcache.tags.occ_percent::total            1                       # Average percentage of cache occupancy
system.cpu.dcache.tags.occ_task_id_blocks::1024         1024                       # Occupied blocks per task id
system.cpu.dcache.tags.age_task_id_blocks_1024::0           24                       # Occupied blocks per task id
system.cpu.dcache.tags.age_task_id_blocks_1024::1          120                       # Occupied blocks per task id
system.cpu.dcache.tags.age_task_id_blocks_1024::2          747                       # Occupied blocks per task id
system.cpu.dcache.tags.age_task_id_blocks_1024::3          133                       # Occupied blocks per task id
system.cpu.dcache.tags.occ_task_id_percent::1024            1                       # Percentage of cache occupancy per task id
system.cpu.dcache.tags.tag_accesses         226900157                       # Number of tag accesses
system.cpu.dcache.tags.data_accesses        226900157                       # Number of data accesses

---------- End Simulation Statistics   ----------
