
---------- Begin Simulation Statistics ----------
final_tick                               2542127749500                       # Number of ticks from beginning of simulation (restored from checkpoints and never reset)
host_inst_rate                                 224375                       # Simulator instruction rate (inst/s)
host_mem_usage                                 740740                       # Number of bytes of host memory used
host_op_rate                                   224374                       # Simulator op (including micro ops) rate (op/s)
host_seconds                                    18.71                       # Real time elapsed on the host
host_tick_rate                              647689690                       # Simulator tick rate (ticks/s)
sim_freq                                 1000000000000                       # Frequency of simulated ticks
sim_insts                                     4197897                       # Number of instructions simulated
sim_ops                                       4197897                       # Number of ops (including micro ops) simulated
sim_seconds                                  0.012118                       # Number of seconds simulated
sim_ticks                                 12117904500                       # Number of ticks simulated
system.cpu.branchPred.BTBCorrect                    0                       # Number of correct BTB predictions (this stat may not work properly.
system.cpu.branchPred.BTBHitPct             52.101140                       # BTB Hit Percentage
system.cpu.branchPred.BTBHits                  366469                       # Number of BTB hits
system.cpu.branchPred.BTBLookups               703380                       # Number of BTB lookups
system.cpu.branchPred.RASInCorrect               2667                       # Number of incorrect RAS predictions.
system.cpu.branchPred.condIncorrect            108404                       # Number of conditional branches incorrect
system.cpu.branchPred.condPredicted            959061                       # Number of conditional branches predicted
system.cpu.branchPred.indirectHits              29665                       # Number of indirect target hits.
system.cpu.branchPred.indirectLookups          183280                       # Number of indirect predictor lookups.
system.cpu.branchPred.indirectMisses           153615                       # Number of indirect misses.
system.cpu.branchPred.lookups                 1160285                       # Number of BP lookups
system.cpu.branchPred.usedRAS                   70670                       # Number of times the RAS was used to get a target.
system.cpu.branchPredindirectMispredicted        28017                       # Number of mispredicted indirect branches.
system.cpu.committedInsts                     4197897                       # Number of instructions committed
system.cpu.committedOps                       4197897                       # Number of ops (including micro ops) committed
system.cpu.cpi                               5.770071                       # CPI: cycles per instruction
system.cpu.discardedOps                        300275                       # Number of ops (including micro ops) which were discarded before commit
system.cpu.dtb.data_accesses                   616296                       # DTB accesses
system.cpu.dtb.data_acv                           131                       # DTB access violations
system.cpu.dtb.data_hits                      1475603                       # DTB hits
system.cpu.dtb.data_misses                       8144                       # DTB misses
system.cpu.dtb.fetch_accesses                       0                       # ITB accesses
system.cpu.dtb.fetch_acv                            0                       # ITB acv
system.cpu.dtb.fetch_hits                           0                       # ITB hits
system.cpu.dtb.fetch_misses                         0                       # ITB misses
system.cpu.dtb.read_accesses                   414251                       # DTB read accesses
system.cpu.dtb.read_acv                            43                       # DTB read access violations
system.cpu.dtb.read_hits                       871343                       # DTB read hits
system.cpu.dtb.read_misses                       7285                       # DTB read misses
system.cpu.dtb.write_accesses                  202045                       # DTB write accesses
system.cpu.dtb.write_acv                           88                       # DTB write access violations
system.cpu.dtb.write_hits                      604260                       # DTB write hits
system.cpu.dtb.write_misses                       859                       # DTB write misses
system.cpu.fetch2.amo_instructions                  0                       # Number of memory atomic instructions successfully decoded
system.cpu.fetch2.fp_instructions               18267                       # Number of floating point instructions successfully decoded
system.cpu.fetch2.int_instructions            3658004                       # Number of integer instructions successfully decoded
system.cpu.fetch2.load_instructions           1146290                       # Number of memory load instructions successfully decoded
system.cpu.fetch2.store_instructions           684767                       # Number of memory store instructions successfully decoded
system.cpu.fetch2.vec_instructions                  0                       # Number of SIMD instructions successfully decoded
system.cpu.idleCycles                        17037208                       # Total number of cycles that the object has spent stopped
system.cpu.ipc                               0.173308                       # IPC: instructions per cycle
system.cpu.itb.data_accesses                        0                       # DTB accesses
system.cpu.itb.data_acv                             0                       # DTB access violations
system.cpu.itb.data_hits                            0                       # DTB hits
system.cpu.itb.data_misses                          0                       # DTB misses
system.cpu.itb.fetch_accesses                  977420                       # ITB accesses
system.cpu.itb.fetch_acv                          345                       # ITB acv
system.cpu.itb.fetch_hits                      972291                       # ITB hits
system.cpu.itb.fetch_misses                      5129                       # ITB misses
system.cpu.itb.read_accesses                        0                       # DTB read accesses
system.cpu.itb.read_acv                             0                       # DTB read access violations
system.cpu.itb.read_hits                            0                       # DTB read hits
system.cpu.itb.read_misses                          0                       # DTB read misses
system.cpu.itb.write_accesses                       0                       # DTB write accesses
system.cpu.itb.write_acv                            0                       # DTB write access violations
system.cpu.itb.write_hits                           0                       # DTB write hits
system.cpu.itb.write_misses                         0                       # DTB write misses
system.cpu.kern.callpal::swpctx                   574      9.40%      9.40% # number of callpals executed
system.cpu.kern.callpal::tbi                       25      0.41%      9.81% # number of callpals executed
system.cpu.kern.callpal::swpipl                  4238     69.43%     79.24% # number of callpals executed
system.cpu.kern.callpal::rdps                      50      0.82%     80.06% # number of callpals executed
system.cpu.kern.callpal::wrusp                      4      0.07%     80.13% # number of callpals executed
system.cpu.kern.callpal::rdusp                      3      0.05%     80.18% # number of callpals executed
system.cpu.kern.callpal::rti                      897     14.70%     94.87% # number of callpals executed
system.cpu.kern.callpal::callsys                  235      3.85%     98.72% # number of callpals executed
system.cpu.kern.callpal::imb                       78      1.28%    100.00% # number of callpals executed
system.cpu.kern.callpal::total                   6104                       # number of callpals executed
system.cpu.kern.inst.arm                            0                       # number of arm instructions executed
system.cpu.kern.inst.hwrei                      14448                       # number of hwrei instructions executed
system.cpu.kern.inst.quiesce                        9                       # number of quiesce instructions executed
system.cpu.kern.ipl_count::0                     2438     47.31%     47.31% # number of times we switched to this ipl
system.cpu.kern.ipl_count::21                       5      0.10%     47.41% # number of times we switched to this ipl
system.cpu.kern.ipl_count::22                      13      0.25%     47.66% # number of times we switched to this ipl
system.cpu.kern.ipl_count::31                    2697     52.34%    100.00% # number of times we switched to this ipl
system.cpu.kern.ipl_count::total                 5153                       # number of times we switched to this ipl
system.cpu.kern.ipl_good::0                      2425     49.82%     49.82% # number of times we switched to this ipl from a different ipl
system.cpu.kern.ipl_good::21                        5      0.10%     49.92% # number of times we switched to this ipl from a different ipl
system.cpu.kern.ipl_good::22                       13      0.27%     50.18% # number of times we switched to this ipl from a different ipl
system.cpu.kern.ipl_good::31                     2425     49.82%    100.00% # number of times we switched to this ipl from a different ipl
system.cpu.kern.ipl_good::total                  4868                       # number of times we switched to this ipl from a different ipl
system.cpu.kern.ipl_ticks::0              11161788500     92.08%     92.08% # number of cycles we spent at this ipl
system.cpu.kern.ipl_ticks::21                 9394000      0.08%     92.16% # number of cycles we spent at this ipl
system.cpu.kern.ipl_ticks::22                20260000      0.17%     92.32% # number of cycles we spent at this ipl
system.cpu.kern.ipl_ticks::31               930613500      7.68%    100.00% # number of cycles we spent at this ipl
system.cpu.kern.ipl_ticks::total          12122056000                       # number of cycles we spent at this ipl
system.cpu.kern.ipl_used::0                  0.994668                       # fraction of swpipl calls that actually changed the ipl
system.cpu.kern.ipl_used::21                        1                       # fraction of swpipl calls that actually changed the ipl
system.cpu.kern.ipl_used::22                        1                       # fraction of swpipl calls that actually changed the ipl
system.cpu.kern.ipl_used::31                 0.899147                       # fraction of swpipl calls that actually changed the ipl
system.cpu.kern.ipl_used::total              0.944692                       # fraction of swpipl calls that actually changed the ipl
system.cpu.kern.mode_good::kernel                 872                      
system.cpu.kern.mode_good::user                   872                      
system.cpu.kern.mode_good::idle                     0                      
system.cpu.kern.mode_switch::kernel              1471                       # number of protection mode switches
system.cpu.kern.mode_switch::user                 872                       # number of protection mode switches
system.cpu.kern.mode_switch::idle                   0                       # number of protection mode switches
system.cpu.kern.mode_switch_good::kernel     0.592794                       # fraction of useful protection mode switches
system.cpu.kern.mode_switch_good::user              1                       # fraction of useful protection mode switches
system.cpu.kern.mode_switch_good::idle            nan                       # fraction of useful protection mode switches
system.cpu.kern.mode_switch_good::total      0.744345                       # fraction of useful protection mode switches
system.cpu.kern.mode_ticks::kernel         8185173000     67.52%     67.52% # number of ticks spent at the given mode
system.cpu.kern.mode_ticks::user           3936883000     32.48%    100.00% # number of ticks spent at the given mode
system.cpu.kern.mode_ticks::idle                    0      0.00%    100.00% # number of ticks spent at the given mode
system.cpu.kern.swap_context                      574                       # number of times the context was actually changed
system.cpu.numCycles                         24222164                       # number of cpu cycles simulated
system.cpu.numFetchSuspends                         9                       # Number of times Execute suspended instruction fetching
system.cpu.numWorkItemsCompleted                    0                       # number of work items this cpu completed
system.cpu.numWorkItemsStarted                      0                       # number of work items this cpu started
system.cpu.op_class_0::No_OpClass               85425      2.03%      2.03% # Class of committed instruction
system.cpu.op_class_0::IntAlu                 2542546     60.57%     62.60% # Class of committed instruction
system.cpu.op_class_0::IntMult                   3684      0.09%     62.69% # Class of committed instruction
system.cpu.op_class_0::IntDiv                       0      0.00%     62.69% # Class of committed instruction
system.cpu.op_class_0::FloatAdd                  8286      0.20%     62.89% # Class of committed instruction
system.cpu.op_class_0::FloatCmp                     0      0.00%     62.89% # Class of committed instruction
system.cpu.op_class_0::FloatCvt                     0      0.00%     62.89% # Class of committed instruction
system.cpu.op_class_0::FloatMult                    0      0.00%     62.89% # Class of committed instruction
system.cpu.op_class_0::FloatMultAcc                 0      0.00%     62.89% # Class of committed instruction
system.cpu.op_class_0::FloatDiv                  1593      0.04%     62.93% # Class of committed instruction
system.cpu.op_class_0::FloatMisc                    0      0.00%     62.93% # Class of committed instruction
system.cpu.op_class_0::FloatSqrt                    0      0.00%     62.93% # Class of committed instruction
system.cpu.op_class_0::SimdAdd                      0      0.00%     62.93% # Class of committed instruction
system.cpu.op_class_0::SimdAddAcc                   0      0.00%     62.93% # Class of committed instruction
system.cpu.op_class_0::SimdAlu                      0      0.00%     62.93% # Class of committed instruction
system.cpu.op_class_0::SimdCmp                      0      0.00%     62.93% # Class of committed instruction
system.cpu.op_class_0::SimdCvt                      0      0.00%     62.93% # Class of committed instruction
system.cpu.op_class_0::SimdMisc                     0      0.00%     62.93% # Class of committed instruction
system.cpu.op_class_0::SimdMult                     0      0.00%     62.93% # Class of committed instruction
system.cpu.op_class_0::SimdMultAcc                  0      0.00%     62.93% # Class of committed instruction
system.cpu.op_class_0::SimdShift                    0      0.00%     62.93% # Class of committed instruction
system.cpu.op_class_0::SimdShiftAcc                 0      0.00%     62.93% # Class of committed instruction
system.cpu.op_class_0::SimdDiv                      0      0.00%     62.93% # Class of committed instruction
system.cpu.op_class_0::SimdSqrt                     0      0.00%     62.93% # Class of committed instruction
system.cpu.op_class_0::SimdFloatAdd                 0      0.00%     62.93% # Class of committed instruction
system.cpu.op_class_0::SimdFloatAlu                 0      0.00%     62.93% # Class of committed instruction
system.cpu.op_class_0::SimdFloatCmp                 0      0.00%     62.93% # Class of committed instruction
system.cpu.op_class_0::SimdFloatCvt                 0      0.00%     62.93% # Class of committed instruction
system.cpu.op_class_0::SimdFloatDiv                 0      0.00%     62.93% # Class of committed instruction
system.cpu.op_class_0::SimdFloatMisc                0      0.00%     62.93% # Class of committed instruction
system.cpu.op_class_0::SimdFloatMult                0      0.00%     62.93% # Class of committed instruction
system.cpu.op_class_0::SimdFloatMultAcc             0      0.00%     62.93% # Class of committed instruction
system.cpu.op_class_0::SimdFloatSqrt                0      0.00%     62.93% # Class of committed instruction
system.cpu.op_class_0::SimdReduceAdd                0      0.00%     62.93% # Class of committed instruction
system.cpu.op_class_0::SimdReduceAlu                0      0.00%     62.93% # Class of committed instruction
system.cpu.op_class_0::SimdReduceCmp                0      0.00%     62.93% # Class of committed instruction
system.cpu.op_class_0::SimdFloatReduceAdd            0      0.00%     62.93% # Class of committed instruction
system.cpu.op_class_0::SimdFloatReduceCmp            0      0.00%     62.93% # Class of committed instruction
system.cpu.op_class_0::SimdAes                      0      0.00%     62.93% # Class of committed instruction
system.cpu.op_class_0::SimdAesMix                   0      0.00%     62.93% # Class of committed instruction
system.cpu.op_class_0::SimdSha1Hash                 0      0.00%     62.93% # Class of committed instruction
system.cpu.op_class_0::SimdSha1Hash2                0      0.00%     62.93% # Class of committed instruction
system.cpu.op_class_0::SimdSha256Hash               0      0.00%     62.93% # Class of committed instruction
system.cpu.op_class_0::SimdSha256Hash2              0      0.00%     62.93% # Class of committed instruction
system.cpu.op_class_0::SimdShaSigma2                0      0.00%     62.93% # Class of committed instruction
system.cpu.op_class_0::SimdShaSigma3                0      0.00%     62.93% # Class of committed instruction
system.cpu.op_class_0::SimdPredAlu                  0      0.00%     62.93% # Class of committed instruction
system.cpu.op_class_0::MemRead                 839777     20.00%     82.93% # Class of committed instruction
system.cpu.op_class_0::MemWrite                592858     14.12%     97.05% # Class of committed instruction
system.cpu.op_class_0::FloatMemRead              9988      0.24%     97.29% # Class of committed instruction
system.cpu.op_class_0::FloatMemWrite             8788      0.21%     97.50% # Class of committed instruction
system.cpu.op_class_0::IprAccess               104952      2.50%    100.00% # Class of committed instruction
system.cpu.op_class_0::InstPrefetch                 0      0.00%    100.00% # Class of committed instruction
system.cpu.op_class_0::total                  4197897                       # Class of committed instruction
system.cpu.quiesceCycles                        13645                       # Total number of cycles that CPU has spent quiesced or waiting for an interrupt
system.cpu.tickCycles                         7184956                       # Number of cycles that the object actually ticked
system.disk0.dma_read_bytes                         0                       # Number of bytes transfered via DMA reads (not PRD).
system.disk0.dma_read_full_pages                    0                       # Number of full page size DMA reads (not PRD).
system.disk0.dma_read_txs                           0                       # Number of DMA read transactions (not PRD).
system.disk0.dma_write_bytes                    12288                       # Number of bytes transfered via DMA writes.
system.disk0.dma_write_full_pages                   0                       # Number of full page size DMA writes.
system.disk0.dma_write_txs                          3                       # Number of DMA write transactions.
system.disk2.dma_read_bytes                         0                       # Number of bytes transfered via DMA reads (not PRD).
system.disk2.dma_read_full_pages                    0                       # Number of full page size DMA reads (not PRD).
system.disk2.dma_read_txs                           0                       # Number of DMA read transactions (not PRD).
system.disk2.dma_write_bytes                        0                       # Number of bytes transfered via DMA writes.
system.disk2.dma_write_full_pages                   0                       # Number of full page size DMA writes.
system.disk2.dma_write_txs                          0                       # Number of DMA write transactions.
system.membus.snoop_filter.hit_multi_requests          437                       # Number of requests hitting in the snoop filter with multiple (>1) holders of the requested data.
system.membus.snoop_filter.hit_multi_snoops            0                       # Number of snoops hitting in the snoop filter with multiple (>1) holders of the requested data.
system.membus.snoop_filter.hit_single_requests       158104                       # Number of requests hitting in the snoop filter with a single holder of the requested data.
system.membus.snoop_filter.hit_single_snoops            0                       # Number of snoops hitting in the snoop filter with a single holder of the requested data.
system.membus.snoop_filter.tot_requests        317813                       # Total number of requests made to the snoop filter.
system.membus.snoop_filter.tot_snoops               0                       # Total number of snoops made to the snoop filter.
system.tsunami.ethernet.coalescedRxDesc           nan                       # average number of RxDesc's coalesced into each post
system.tsunami.ethernet.coalescedRxIdle           nan                       # average number of RxIdle's coalesced into each post
system.tsunami.ethernet.coalescedRxOk             nan                       # average number of RxOk's coalesced into each post
system.tsunami.ethernet.coalescedRxOrn            nan                       # average number of RxOrn's coalesced into each post
system.tsunami.ethernet.coalescedSwi              nan                       # average number of Swi's coalesced into each post
system.tsunami.ethernet.coalescedTotal            nan                       # average number of interrupts coalesced into each post
system.tsunami.ethernet.coalescedTxDesc           nan                       # average number of TxDesc's coalesced into each post
system.tsunami.ethernet.coalescedTxIdle           nan                       # average number of TxIdle's coalesced into each post
system.tsunami.ethernet.coalescedTxOk             nan                       # average number of TxOk's coalesced into each post
system.tsunami.ethernet.descDMAReads                0                       # Number of descriptors the device read w/ DMA
system.tsunami.ethernet.descDMAWrites               0                       # Number of descriptors the device wrote w/ DMA
system.tsunami.ethernet.descDmaReadBytes            0                       # number of descriptor bytes read w/ DMA
system.tsunami.ethernet.descDmaWriteBytes            0                       # number of descriptor bytes write w/ DMA
system.tsunami.ethernet.droppedPackets              0                       # number of packets dropped
system.tsunami.ethernet.postedInterrupts            0                       # number of posts to CPU
system.tsunami.ethernet.postedRxDesc                0                       # number of RxDesc interrupts posted to CPU
system.tsunami.ethernet.postedRxIdle                0                       # number of rxIdle interrupts posted to CPU
system.tsunami.ethernet.postedRxOk                  0                       # number of RxOk interrupts posted to CPU
system.tsunami.ethernet.postedRxOrn                 0                       # number of RxOrn posted to CPU
system.tsunami.ethernet.postedSwi                   0                       # number of software interrupts posted to CPU
system.tsunami.ethernet.postedTxDesc                0                       # number of TxDesc interrupts posted to CPU
system.tsunami.ethernet.postedTxIdle                0                       # number of TxIdle interrupts posted to CPU
system.tsunami.ethernet.postedTxOk                  0                       # number of TxOk interrupts posted to CPU
system.tsunami.ethernet.totalRxDesc                 0                       # total number of RxDesc written to ISR
system.tsunami.ethernet.totalRxIdle                 0                       # total number of RxIdle written to ISR
system.tsunami.ethernet.totalRxOk                   0                       # total number of RxOk written to ISR
system.tsunami.ethernet.totalRxOrn                  0                       # total number of RxOrn written to ISR
system.tsunami.ethernet.totalSwi                    0                       # total number of Swi written to ISR
system.tsunami.ethernet.totalTxDesc                 0                       # total number of TxDesc written to ISR
system.tsunami.ethernet.totalTxIdle                 0                       # total number of TxIdle written to ISR
system.tsunami.ethernet.totalTxOk                   0                       # total number of TxOk written to ISR
system.bridge.pwrStateResidencyTicks::UNDEFINED 2542127749500                       # Cumulative time (in ticks) in various power states
system.voltage_domain.voltage                       1                       # Voltage in Volts
system.iocache.pwrStateResidencyTicks::UNDEFINED 2542127749500                       # Cumulative time (in ticks) in various power states
system.iocache.demand_misses::.tsunami.ide          195                       # number of demand (read+write) misses
system.iocache.demand_misses::total               195                       # number of demand (read+write) misses
system.iocache.overall_misses::.tsunami.ide          195                       # number of overall misses
system.iocache.overall_misses::total              195                       # number of overall misses
system.iocache.demand_miss_latency::.tsunami.ide     22700456                       # number of demand (read+write) miss cycles
system.iocache.demand_miss_latency::total     22700456                       # number of demand (read+write) miss cycles
system.iocache.overall_miss_latency::.tsunami.ide     22700456                       # number of overall miss cycles
system.iocache.overall_miss_latency::total     22700456                       # number of overall miss cycles
system.iocache.demand_accesses::.tsunami.ide          195                       # number of demand (read+write) accesses
system.iocache.demand_accesses::total             195                       # number of demand (read+write) accesses
system.iocache.overall_accesses::.tsunami.ide          195                       # number of overall (read+write) accesses
system.iocache.overall_accesses::total            195                       # number of overall (read+write) accesses
system.iocache.demand_miss_rate::.tsunami.ide            1                       # miss rate for demand accesses
system.iocache.demand_miss_rate::total              1                       # miss rate for demand accesses
system.iocache.overall_miss_rate::.tsunami.ide            1                       # miss rate for overall accesses
system.iocache.overall_miss_rate::total             1                       # miss rate for overall accesses
system.iocache.demand_avg_miss_latency::.tsunami.ide 116412.594872                       # average overall miss latency
system.iocache.demand_avg_miss_latency::total 116412.594872                       # average overall miss latency
system.iocache.overall_avg_miss_latency::.tsunami.ide 116412.594872                       # average overall miss latency
system.iocache.overall_avg_miss_latency::total 116412.594872                       # average overall miss latency
system.iocache.blocked_cycles::no_mshrs             0                       # number of cycles access was blocked
system.iocache.blocked_cycles::no_targets            0                       # number of cycles access was blocked
system.iocache.blocked::no_mshrs                    0                       # number of cycles access was blocked
system.iocache.blocked::no_targets                  0                       # number of cycles access was blocked
system.iocache.avg_blocked_cycles::no_mshrs          nan                       # average number of cycles each access was blocked
system.iocache.avg_blocked_cycles::no_targets          nan                       # average number of cycles each access was blocked
system.iocache.writebacks::.writebacks            176                       # number of writebacks
system.iocache.writebacks::total                  176                       # number of writebacks
system.iocache.demand_mshr_misses::.tsunami.ide          195                       # number of demand (read+write) MSHR misses
system.iocache.demand_mshr_misses::total          195                       # number of demand (read+write) MSHR misses
system.iocache.overall_mshr_misses::.tsunami.ide          195                       # number of overall MSHR misses
system.iocache.overall_mshr_misses::total          195                       # number of overall MSHR misses
system.iocache.demand_mshr_miss_latency::.tsunami.ide     12937490                       # number of demand (read+write) MSHR miss cycles
system.iocache.demand_mshr_miss_latency::total     12937490                       # number of demand (read+write) MSHR miss cycles
system.iocache.overall_mshr_miss_latency::.tsunami.ide     12937490                       # number of overall MSHR miss cycles
system.iocache.overall_mshr_miss_latency::total     12937490                       # number of overall MSHR miss cycles
system.iocache.demand_mshr_miss_rate::.tsunami.ide            1                       # mshr miss rate for demand accesses
system.iocache.demand_mshr_miss_rate::total            1                       # mshr miss rate for demand accesses
system.iocache.overall_mshr_miss_rate::.tsunami.ide            1                       # mshr miss rate for overall accesses
system.iocache.overall_mshr_miss_rate::total            1                       # mshr miss rate for overall accesses
system.iocache.demand_avg_mshr_miss_latency::.tsunami.ide 66346.102564                       # average overall mshr miss latency
system.iocache.demand_avg_mshr_miss_latency::total 66346.102564                       # average overall mshr miss latency
system.iocache.overall_avg_mshr_miss_latency::.tsunami.ide 66346.102564                       # average overall mshr miss latency
system.iocache.overall_avg_mshr_miss_latency::total 66346.102564                       # average overall mshr miss latency
system.iocache.replacements                       179                       # number of replacements
system.iocache.ReadReq_misses::.tsunami.ide            3                       # number of ReadReq misses
system.iocache.ReadReq_misses::total                3                       # number of ReadReq misses
system.iocache.ReadReq_miss_latency::.tsunami.ide       349497                       # number of ReadReq miss cycles
system.iocache.ReadReq_miss_latency::total       349497                       # number of ReadReq miss cycles
system.iocache.ReadReq_accesses::.tsunami.ide            3                       # number of ReadReq accesses(hits+misses)
system.iocache.ReadReq_accesses::total              3                       # number of ReadReq accesses(hits+misses)
system.iocache.ReadReq_miss_rate::.tsunami.ide            1                       # miss rate for ReadReq accesses
system.iocache.ReadReq_miss_rate::total             1                       # miss rate for ReadReq accesses
system.iocache.ReadReq_avg_miss_latency::.tsunami.ide       116499                       # average ReadReq miss latency
system.iocache.ReadReq_avg_miss_latency::total       116499                       # average ReadReq miss latency
system.iocache.ReadReq_mshr_misses::.tsunami.ide            3                       # number of ReadReq MSHR misses
system.iocache.ReadReq_mshr_misses::total            3                       # number of ReadReq MSHR misses
system.iocache.ReadReq_mshr_miss_latency::.tsunami.ide       199497                       # number of ReadReq MSHR miss cycles
system.iocache.ReadReq_mshr_miss_latency::total       199497                       # number of ReadReq MSHR miss cycles
system.iocache.ReadReq_mshr_miss_rate::.tsunami.ide            1                       # mshr miss rate for ReadReq accesses
system.iocache.ReadReq_mshr_miss_rate::total            1                       # mshr miss rate for ReadReq accesses
system.iocache.ReadReq_avg_mshr_miss_latency::.tsunami.ide        66499                       # average ReadReq mshr miss latency
system.iocache.ReadReq_avg_mshr_miss_latency::total        66499                       # average ReadReq mshr miss latency
system.iocache.WriteLineReq_misses::.tsunami.ide          192                       # number of WriteLineReq misses
system.iocache.WriteLineReq_misses::total          192                       # number of WriteLineReq misses
system.iocache.WriteLineReq_miss_latency::.tsunami.ide     22350959                       # number of WriteLineReq miss cycles
system.iocache.WriteLineReq_miss_latency::total     22350959                       # number of WriteLineReq miss cycles
system.iocache.WriteLineReq_accesses::.tsunami.ide          192                       # number of WriteLineReq accesses(hits+misses)
system.iocache.WriteLineReq_accesses::total          192                       # number of WriteLineReq accesses(hits+misses)
system.iocache.WriteLineReq_miss_rate::.tsunami.ide            1                       # miss rate for WriteLineReq accesses
system.iocache.WriteLineReq_miss_rate::total            1                       # miss rate for WriteLineReq accesses
system.iocache.WriteLineReq_avg_miss_latency::.tsunami.ide 116411.244792                       # average WriteLineReq miss latency
system.iocache.WriteLineReq_avg_miss_latency::total 116411.244792                       # average WriteLineReq miss latency
system.iocache.WriteLineReq_mshr_misses::.tsunami.ide          192                       # number of WriteLineReq MSHR misses
system.iocache.WriteLineReq_mshr_misses::total          192                       # number of WriteLineReq MSHR misses
system.iocache.WriteLineReq_mshr_miss_latency::.tsunami.ide     12737993                       # number of WriteLineReq MSHR miss cycles
system.iocache.WriteLineReq_mshr_miss_latency::total     12737993                       # number of WriteLineReq MSHR miss cycles
system.iocache.WriteLineReq_mshr_miss_rate::.tsunami.ide            1                       # mshr miss rate for WriteLineReq accesses
system.iocache.WriteLineReq_mshr_miss_rate::total            1                       # mshr miss rate for WriteLineReq accesses
system.iocache.WriteLineReq_avg_mshr_miss_latency::.tsunami.ide 66343.713542                       # average WriteLineReq mshr miss latency
system.iocache.WriteLineReq_avg_mshr_miss_latency::total 66343.713542                       # average WriteLineReq mshr miss latency
system.iocache.tags.pwrStateResidencyTicks::UNDEFINED 2542127749500                       # Cumulative time (in ticks) in various power states
system.iocache.tags.tagsinuse                3.282545                       # Cycle average of tags in use
system.iocache.tags.total_refs                    179                       # Total number of references to valid blocks.
system.iocache.tags.sampled_refs                  179                       # Sample count of references to valid blocks.
system.iocache.tags.avg_refs                        1                       # Average number of references to valid blocks.
system.iocache.tags.warmup_cycle         2539640574000                       # Cycle when the warmup percentage was hit.
system.iocache.tags.occ_blocks::.tsunami.ide     3.282545                       # Average occupied blocks per requestor
system.iocache.tags.occ_percent::.tsunami.ide     0.205159                       # Average percentage of cache occupancy
system.iocache.tags.occ_percent::total       0.205159                       # Average percentage of cache occupancy
system.iocache.tags.occ_task_id_blocks::1023           16                       # Occupied blocks per task id
system.iocache.tags.age_task_id_blocks_1023::3           16                       # Occupied blocks per task id
system.iocache.tags.occ_task_id_percent::1023            1                       # Percentage of cache occupancy per task id
system.iocache.tags.tag_accesses                 1755                       # Number of tag accesses
system.iocache.tags.data_accesses                1755                       # Number of data accesses
system.membus.pwrStateResidencyTicks::UNDEFINED 2542127749500                       # Cumulative time (in ticks) in various power states
system.membus.trans_dist::ReadReq                 108                       # Transaction distribution
system.membus.trans_dist::ReadResp             130660                       # Transaction distribution
system.membus.trans_dist::WriteReq                100                       # Transaction distribution
system.membus.trans_dist::WriteResp               100                       # Transaction distribution
system.membus.trans_dist::WritebackDirty        34914                       # Transaction distribution
system.membus.trans_dist::WritebackClean        88663                       # Transaction distribution
system.membus.trans_dist::CleanEvict            34506                       # Transaction distribution
system.membus.trans_dist::UpgradeReq               15                       # Transaction distribution
system.membus.trans_dist::ReadExReq             28969                       # Transaction distribution
system.membus.trans_dist::ReadExResp            28969                       # Transaction distribution
system.membus.trans_dist::ReadCleanReq          89253                       # Transaction distribution
system.membus.trans_dist::ReadSharedReq         41301                       # Transaction distribution
system.membus.trans_dist::BadAddressError            2                       # Transaction distribution
system.membus.trans_dist::InvalidateReq           192                       # Transaction distribution
system.membus.pkt_count_system.iocache.mem_side::system.mem_ctrls.port          374                       # Packet count per connected master and slave (bytes)
system.membus.pkt_count_system.iocache.mem_side::total          374                       # Packet count per connected master and slave (bytes)
system.membus.pkt_count_system.cpu.icache.mem_side::system.mem_ctrls.port       267107                       # Packet count per connected master and slave (bytes)
system.membus.pkt_count_system.cpu.icache.mem_side::total       267107                       # Packet count per connected master and slave (bytes)
system.membus.pkt_count_system.cpu.dcache.mem_side::system.bridge.slave          416                       # Packet count per connected master and slave (bytes)
system.membus.pkt_count_system.cpu.dcache.mem_side::system.mem_ctrls.port       209786                       # Packet count per connected master and slave (bytes)
system.membus.pkt_count_system.cpu.dcache.mem_side::system.membus.badaddr_responder.pio            4                       # Packet count per connected master and slave (bytes)
system.membus.pkt_count_system.cpu.dcache.mem_side::total       210206                       # Packet count per connected master and slave (bytes)
system.membus.pkt_count::total                 477687                       # Packet count per connected master and slave (bytes)
system.membus.pkt_size_system.iocache.mem_side::system.mem_ctrls.port        11264                       # Cumulative packet size per connected master and slave (bytes)
system.membus.pkt_size_system.iocache.mem_side::total        11264                       # Cumulative packet size per connected master and slave (bytes)
system.membus.pkt_size_system.cpu.icache.mem_side::system.mem_ctrls.port     11382656                       # Cumulative packet size per connected master and slave (bytes)
system.membus.pkt_size_system.cpu.icache.mem_side::total     11382656                       # Cumulative packet size per connected master and slave (bytes)
system.membus.pkt_size_system.cpu.dcache.mem_side::system.bridge.slave          441                       # Cumulative packet size per connected master and slave (bytes)
system.membus.pkt_size_system.cpu.dcache.mem_side::system.mem_ctrls.port      6720192                       # Cumulative packet size per connected master and slave (bytes)
system.membus.pkt_size_system.cpu.dcache.mem_side::total      6720633                       # Cumulative packet size per connected master and slave (bytes)
system.membus.pkt_size::total                18114553                       # Cumulative packet size per connected master and slave (bytes)
system.membus.snoops                               65                       # Total snoops (count)
system.membus.snoopTraffic                       4160                       # Total snoop traffic (bytes)
system.membus.snoop_fanout::samples            159938                       # Request fanout histogram
system.membus.snoop_fanout::mean             0.002739                       # Request fanout histogram
system.membus.snoop_fanout::stdev            0.052260                       # Request fanout histogram
system.membus.snoop_fanout::underflows              0      0.00%      0.00% # Request fanout histogram
system.membus.snoop_fanout::0                  159500     99.73%     99.73% # Request fanout histogram
system.membus.snoop_fanout::1                     438      0.27%    100.00% # Request fanout histogram
system.membus.snoop_fanout::2                       0      0.00%    100.00% # Request fanout histogram
system.membus.snoop_fanout::3                       0      0.00%    100.00% # Request fanout histogram
system.membus.snoop_fanout::overflows               0      0.00%    100.00% # Request fanout histogram
system.membus.snoop_fanout::min_value               0                       # Request fanout histogram
system.membus.snoop_fanout::max_value               1                       # Request fanout histogram
system.membus.snoop_fanout::total              159938                       # Request fanout histogram
system.membus.reqLayer0.occupancy              353500                       # Layer occupancy (ticks)
system.membus.reqLayer0.utilization               0.0                       # Layer utilization (%)
system.membus.reqLayer1.occupancy           835395537                       # Layer occupancy (ticks)
system.membus.reqLayer1.utilization               6.9                       # Layer utilization (%)
system.membus.reqLayer2.occupancy                3000                       # Layer occupancy (ticks)
system.membus.reqLayer2.utilization               0.0                       # Layer utilization (%)
system.membus.respLayer1.occupancy              17997                       # Layer occupancy (ticks)
system.membus.respLayer1.utilization              0.0                       # Layer utilization (%)
system.membus.respLayer3.occupancy          378114500                       # Layer occupancy (ticks)
system.membus.respLayer3.utilization              3.1                       # Layer utilization (%)
system.membus.badaddr_responder.pwrStateResidencyTicks::UNDEFINED 2542127749500                       # Cumulative time (in ticks) in various power states
system.membus.respLayer2.occupancy          473288000                       # Layer occupancy (ticks)
system.membus.respLayer2.utilization              3.9                       # Layer utilization (%)
system.clk_domain.clock                          1000                       # Clock period in ticks
system.tsunami.fake_uart1.pwrStateResidencyTicks::UNDEFINED 2542127749500                       # Cumulative time (in ticks) in various power states
system.tsunami.fake_uart2.pwrStateResidencyTicks::UNDEFINED 2542127749500                       # Cumulative time (in ticks) in various power states
system.tsunami.fake_uart3.pwrStateResidencyTicks::UNDEFINED 2542127749500                       # Cumulative time (in ticks) in various power states
system.tsunami.fake_uart4.pwrStateResidencyTicks::UNDEFINED 2542127749500                       # Cumulative time (in ticks) in various power states
system.tsunami.fake_ppc.pwrStateResidencyTicks::UNDEFINED 2542127749500                       # Cumulative time (in ticks) in various power states
system.tsunami.cchip.pwrStateResidencyTicks::UNDEFINED 2542127749500                       # Cumulative time (in ticks) in various power states
system.tsunami.io.pwrStateResidencyTicks::UNDEFINED 2542127749500                       # Cumulative time (in ticks) in various power states
system.tsunami.pchip.pwrStateResidencyTicks::UNDEFINED 2542127749500                       # Cumulative time (in ticks) in various power states
system.tsunami.fake_ata1.pwrStateResidencyTicks::UNDEFINED 2542127749500                       # Cumulative time (in ticks) in various power states
system.tsunami.fake_ata0.pwrStateResidencyTicks::UNDEFINED 2542127749500                       # Cumulative time (in ticks) in various power states
system.tsunami.backdoor.pwrStateResidencyTicks::UNDEFINED 2542127749500                       # Cumulative time (in ticks) in various power states
system.tsunami.fake_pnp_read3.pwrStateResidencyTicks::UNDEFINED 2542127749500                       # Cumulative time (in ticks) in various power states
system.tsunami.fake_pnp_read2.pwrStateResidencyTicks::UNDEFINED 2542127749500                       # Cumulative time (in ticks) in various power states
system.tsunami.fake_pnp_read1.pwrStateResidencyTicks::UNDEFINED 2542127749500                       # Cumulative time (in ticks) in various power states
system.tsunami.fake_pnp_read0.pwrStateResidencyTicks::UNDEFINED 2542127749500                       # Cumulative time (in ticks) in various power states
system.tsunami.fake_pnp_read7.pwrStateResidencyTicks::UNDEFINED 2542127749500                       # Cumulative time (in ticks) in various power states
system.tsunami.fake_pnp_read6.pwrStateResidencyTicks::UNDEFINED 2542127749500                       # Cumulative time (in ticks) in various power states
system.tsunami.fake_pnp_read5.pwrStateResidencyTicks::UNDEFINED 2542127749500                       # Cumulative time (in ticks) in various power states
system.tsunami.fake_pnp_read4.pwrStateResidencyTicks::UNDEFINED 2542127749500                       # Cumulative time (in ticks) in various power states
system.tsunami.fake_pnp_write.pwrStateResidencyTicks::UNDEFINED 2542127749500                       # Cumulative time (in ticks) in various power states
system.tsunami.fb.pwrStateResidencyTicks::UNDEFINED 2542127749500                       # Cumulative time (in ticks) in various power states
system.tsunami.fake_pnp_addr.pwrStateResidencyTicks::UNDEFINED 2542127749500                       # Cumulative time (in ticks) in various power states
system.tsunami.fake_OROM.pwrStateResidencyTicks::UNDEFINED 2542127749500                       # Cumulative time (in ticks) in various power states
system.tsunami.uart.pwrStateResidencyTicks::UNDEFINED 2542127749500                       # Cumulative time (in ticks) in various power states
system.tsunami.fake_sm_chip.pwrStateResidencyTicks::UNDEFINED 2542127749500                       # Cumulative time (in ticks) in various power states
system.tsunami.ethernet.pwrStateResidencyTicks::UNDEFINED 2542127749500                       # Cumulative time (in ticks) in various power states
system.tsunami.ide.pwrStateResidencyTicks::UNDEFINED 2542127749500                       # Cumulative time (in ticks) in various power states
system.cpu_voltage_domain.voltage                   1                       # Voltage in Volts
system.mem_ctrls.pwrStateResidencyTicks::UNDEFINED 2542127749500                       # Cumulative time (in ticks) in various power states
system.mem_ctrls.bytes_read::.cpu.inst        5708224                       # Number of bytes read from this memory
system.mem_ctrls.bytes_read::.cpu.data        4496960                       # Number of bytes read from this memory
system.mem_ctrls.bytes_read::total           10205184                       # Number of bytes read from this memory
system.mem_ctrls.bytes_inst_read::.cpu.inst      5708224                       # Number of instructions bytes read from this memory
system.mem_ctrls.bytes_inst_read::total       5708224                       # Number of instructions bytes read from this memory
system.mem_ctrls.bytes_written::.writebacks      2234496                       # Number of bytes written to this memory
system.mem_ctrls.bytes_written::total         2234496                       # Number of bytes written to this memory
system.mem_ctrls.num_reads::.cpu.inst           89191                       # Number of read requests responded to by this memory
system.mem_ctrls.num_reads::.cpu.data           70265                       # Number of read requests responded to by this memory
system.mem_ctrls.num_reads::total              159456                       # Number of read requests responded to by this memory
system.mem_ctrls.num_writes::.writebacks        34914                       # Number of write requests responded to by this memory
system.mem_ctrls.num_writes::total              34914                       # Number of write requests responded to by this memory
system.mem_ctrls.bw_read::.cpu.inst         471057021                       # Total read bandwidth from this memory (bytes/s)
system.mem_ctrls.bw_read::.cpu.data         371100465                       # Total read bandwidth from this memory (bytes/s)
system.mem_ctrls.bw_read::total             842157487                       # Total read bandwidth from this memory (bytes/s)
system.mem_ctrls.bw_inst_read::.cpu.inst    471057021                       # Instruction read bandwidth from this memory (bytes/s)
system.mem_ctrls.bw_inst_read::total        471057021                       # Instruction read bandwidth from this memory (bytes/s)
system.mem_ctrls.bw_write::.writebacks      184396238                       # Write bandwidth from this memory (bytes/s)
system.mem_ctrls.bw_write::total            184396238                       # Write bandwidth from this memory (bytes/s)
system.mem_ctrls.bw_total::.writebacks      184396238                       # Total bandwidth to/from this memory (bytes/s)
system.mem_ctrls.bw_total::.cpu.inst        471057021                       # Total bandwidth to/from this memory (bytes/s)
system.mem_ctrls.bw_total::.cpu.data        371100465                       # Total bandwidth to/from this memory (bytes/s)
system.mem_ctrls.bw_total::total           1026553725                       # Total bandwidth to/from this memory (bytes/s)
system.mem_ctrls.avgPriority_.writebacks::samples    121389.00                       # Average QoS priority value for accepted requests
system.mem_ctrls.avgPriority_.cpu.inst::samples     79206.00                       # Average QoS priority value for accepted requests
system.mem_ctrls.avgPriority_.cpu.data::samples     69763.00                       # Average QoS priority value for accepted requests
system.mem_ctrls.priorityMinLatency      0.000000018750                       # per QoS priority minimum request to response latency (s)
system.mem_ctrls.priorityMaxLatency      0.000186803750                       # per QoS priority maximum request to response latency (s)
system.mem_ctrls.numReadWriteTurnArounds         7464                       # Number of turnarounds from READ to WRITE
system.mem_ctrls.numWriteReadTurnArounds         7464                       # Number of turnarounds from WRITE to READ
system.mem_ctrls.numStayReadState              413474                       # Number of times bus staying in READ state
system.mem_ctrls.numStayWriteState             114019                       # Number of times bus staying in WRITE state
system.mem_ctrls.readReqs                      159456                       # Number of read requests accepted
system.mem_ctrls.writeReqs                     123356                       # Number of write requests accepted
system.mem_ctrls.readBursts                    159456                       # Number of DRAM read bursts, including those serviced by the write queue
system.mem_ctrls.writeBursts                   123356                       # Number of DRAM write bursts, including those merged in the write queue
system.mem_ctrls.servicedByWrQ                  10487                       # Number of DRAM read bursts serviced by the write queue
system.mem_ctrls.mergedWrBursts                  1967                       # Number of DRAM write bursts merged with an existing one
system.mem_ctrls.neitherReadNorWriteReqs            0                       # Number of requests that are neither read nor write
system.mem_ctrls.perBankRdBursts::0              8930                       # Per bank write bursts
system.mem_ctrls.perBankRdBursts::1              6639                       # Per bank write bursts
system.mem_ctrls.perBankRdBursts::2             10206                       # Per bank write bursts
system.mem_ctrls.perBankRdBursts::3              7234                       # Per bank write bursts
system.mem_ctrls.perBankRdBursts::4              8697                       # Per bank write bursts
system.mem_ctrls.perBankRdBursts::5             10061                       # Per bank write bursts
system.mem_ctrls.perBankRdBursts::6              8819                       # Per bank write bursts
system.mem_ctrls.perBankRdBursts::7              8804                       # Per bank write bursts
system.mem_ctrls.perBankRdBursts::8             11888                       # Per bank write bursts
system.mem_ctrls.perBankRdBursts::9              9391                       # Per bank write bursts
system.mem_ctrls.perBankRdBursts::10            10796                       # Per bank write bursts
system.mem_ctrls.perBankRdBursts::11            12223                       # Per bank write bursts
system.mem_ctrls.perBankRdBursts::12             8885                       # Per bank write bursts
system.mem_ctrls.perBankRdBursts::13            13809                       # Per bank write bursts
system.mem_ctrls.perBankRdBursts::14             5625                       # Per bank write bursts
system.mem_ctrls.perBankRdBursts::15             6962                       # Per bank write bursts
system.mem_ctrls.perBankWrBursts::0              7309                       # Per bank write bursts
system.mem_ctrls.perBankWrBursts::1              4462                       # Per bank write bursts
system.mem_ctrls.perBankWrBursts::2              8945                       # Per bank write bursts
system.mem_ctrls.perBankWrBursts::3              8082                       # Per bank write bursts
system.mem_ctrls.perBankWrBursts::4              7938                       # Per bank write bursts
system.mem_ctrls.perBankWrBursts::5              9791                       # Per bank write bursts
system.mem_ctrls.perBankWrBursts::6              7625                       # Per bank write bursts
system.mem_ctrls.perBankWrBursts::7              7020                       # Per bank write bursts
system.mem_ctrls.perBankWrBursts::8             10771                       # Per bank write bursts
system.mem_ctrls.perBankWrBursts::9              8540                       # Per bank write bursts
system.mem_ctrls.perBankWrBursts::10             8110                       # Per bank write bursts
system.mem_ctrls.perBankWrBursts::11             8151                       # Per bank write bursts
system.mem_ctrls.perBankWrBursts::12             5481                       # Per bank write bursts
system.mem_ctrls.perBankWrBursts::13            10114                       # Per bank write bursts
system.mem_ctrls.perBankWrBursts::14             3222                       # Per bank write bursts
system.mem_ctrls.perBankWrBursts::15             5810                       # Per bank write bursts
system.mem_ctrls.avgRdQLen                       1.09                       # Average read queue length when enqueuing
system.mem_ctrls.avgWrQLen                      25.69                       # Average write queue length when enqueuing
system.mem_ctrls.totQLat                   2042937250                       # Total ticks spent queuing
system.mem_ctrls.totBusLat                  744845000                       # Total ticks spent in databus transfers
system.mem_ctrls.totMemAccLat              4836106000                       # Total ticks spent from burst creation until serviced by the DRAM
system.mem_ctrls.avgQLat                     13713.84                       # Average queueing delay per DRAM burst
system.mem_ctrls.avgBusLat                    5000.00                       # Average bus latency per DRAM burst
system.mem_ctrls.avgMemAccLat                32463.84                       # Average memory access latency per DRAM burst
system.mem_ctrls.numRdRetry                         0                       # Number of times read queue was full causing retry
system.mem_ctrls.numWrRetry                         0                       # Number of times write queue was full causing retry
system.mem_ctrls.readRowHits                   105338                       # Number of row buffer hits during reads
system.mem_ctrls.writeRowHits                   81938                       # Number of row buffer hits during writes
system.mem_ctrls.readRowHitRate                 70.71                       # Row buffer hit rate for reads
system.mem_ctrls.writeRowHitRate                67.50                       # Row buffer hit rate for writes
system.mem_ctrls.readPktSize::0                     0                       # Read request sizes (log2)
system.mem_ctrls.readPktSize::1                     0                       # Read request sizes (log2)
system.mem_ctrls.readPktSize::2                     0                       # Read request sizes (log2)
system.mem_ctrls.readPktSize::3                     0                       # Read request sizes (log2)
system.mem_ctrls.readPktSize::4                     0                       # Read request sizes (log2)
system.mem_ctrls.readPktSize::5                     0                       # Read request sizes (log2)
system.mem_ctrls.readPktSize::6                159456                       # Read request sizes (log2)
system.mem_ctrls.writePktSize::0                    0                       # Write request sizes (log2)
system.mem_ctrls.writePktSize::1                    0                       # Write request sizes (log2)
system.mem_ctrls.writePktSize::2                    0                       # Write request sizes (log2)
system.mem_ctrls.writePktSize::3                    0                       # Write request sizes (log2)
system.mem_ctrls.writePktSize::4                    0                       # Write request sizes (log2)
system.mem_ctrls.writePktSize::5                    0                       # Write request sizes (log2)
system.mem_ctrls.writePktSize::6               123356                       # Write request sizes (log2)
system.mem_ctrls.rdQLenPdf::0                  136568                       # What read queue length does an incoming req see
system.mem_ctrls.rdQLenPdf::1                   12088                       # What read queue length does an incoming req see
system.mem_ctrls.rdQLenPdf::2                     313                       # What read queue length does an incoming req see
system.mem_ctrls.rdQLenPdf::3                       0                       # What read queue length does an incoming req see
system.mem_ctrls.rdQLenPdf::4                       0                       # What read queue length does an incoming req see
system.mem_ctrls.rdQLenPdf::5                       0                       # What read queue length does an incoming req see
system.mem_ctrls.rdQLenPdf::6                       0                       # What read queue length does an incoming req see
system.mem_ctrls.rdQLenPdf::7                       0                       # What read queue length does an incoming req see
system.mem_ctrls.rdQLenPdf::8                       0                       # What read queue length does an incoming req see
system.mem_ctrls.rdQLenPdf::9                       0                       # What read queue length does an incoming req see
system.mem_ctrls.rdQLenPdf::10                      0                       # What read queue length does an incoming req see
system.mem_ctrls.rdQLenPdf::11                      0                       # What read queue length does an incoming req see
system.mem_ctrls.rdQLenPdf::12                      0                       # What read queue length does an incoming req see
system.mem_ctrls.rdQLenPdf::13                      0                       # What read queue length does an incoming req see
system.mem_ctrls.rdQLenPdf::14                      0                       # What read queue length does an incoming req see
system.mem_ctrls.rdQLenPdf::15                      0                       # What read queue length does an incoming req see
system.mem_ctrls.rdQLenPdf::16                      0                       # What read queue length does an incoming req see
system.mem_ctrls.rdQLenPdf::17                      0                       # What read queue length does an incoming req see
system.mem_ctrls.rdQLenPdf::18                      0                       # What read queue length does an incoming req see
system.mem_ctrls.rdQLenPdf::19                      0                       # What read queue length does an incoming req see
system.mem_ctrls.rdQLenPdf::20                      0                       # What read queue length does an incoming req see
system.mem_ctrls.rdQLenPdf::21                      0                       # What read queue length does an incoming req see
system.mem_ctrls.rdQLenPdf::22                      0                       # What read queue length does an incoming req see
system.mem_ctrls.rdQLenPdf::23                      0                       # What read queue length does an incoming req see
system.mem_ctrls.rdQLenPdf::24                      0                       # What read queue length does an incoming req see
system.mem_ctrls.rdQLenPdf::25                      0                       # What read queue length does an incoming req see
system.mem_ctrls.rdQLenPdf::26                      0                       # What read queue length does an incoming req see
system.mem_ctrls.rdQLenPdf::27                      0                       # What read queue length does an incoming req see
system.mem_ctrls.rdQLenPdf::28                      0                       # What read queue length does an incoming req see
system.mem_ctrls.rdQLenPdf::29                      0                       # What read queue length does an incoming req see
system.mem_ctrls.rdQLenPdf::30                      0                       # What read queue length does an incoming req see
system.mem_ctrls.rdQLenPdf::31                      0                       # What read queue length does an incoming req see
system.mem_ctrls.wrQLenPdf::0                       1                       # What write queue length does an incoming req see
system.mem_ctrls.wrQLenPdf::1                       1                       # What write queue length does an incoming req see
system.mem_ctrls.wrQLenPdf::2                       1                       # What write queue length does an incoming req see
system.mem_ctrls.wrQLenPdf::3                       1                       # What write queue length does an incoming req see
system.mem_ctrls.wrQLenPdf::4                       1                       # What write queue length does an incoming req see
system.mem_ctrls.wrQLenPdf::5                       1                       # What write queue length does an incoming req see
system.mem_ctrls.wrQLenPdf::6                       1                       # What write queue length does an incoming req see
system.mem_ctrls.wrQLenPdf::7                       1                       # What write queue length does an incoming req see
system.mem_ctrls.wrQLenPdf::8                       1                       # What write queue length does an incoming req see
system.mem_ctrls.wrQLenPdf::9                       1                       # What write queue length does an incoming req see
system.mem_ctrls.wrQLenPdf::10                      1                       # What write queue length does an incoming req see
system.mem_ctrls.wrQLenPdf::11                      1                       # What write queue length does an incoming req see
system.mem_ctrls.wrQLenPdf::12                      1                       # What write queue length does an incoming req see
system.mem_ctrls.wrQLenPdf::13                      1                       # What write queue length does an incoming req see
system.mem_ctrls.wrQLenPdf::14                      1                       # What write queue length does an incoming req see
system.mem_ctrls.wrQLenPdf::15                    714                       # What write queue length does an incoming req see
system.mem_ctrls.wrQLenPdf::16                    814                       # What write queue length does an incoming req see
system.mem_ctrls.wrQLenPdf::17                   6852                       # What write queue length does an incoming req see
system.mem_ctrls.wrQLenPdf::18                   7489                       # What write queue length does an incoming req see
system.mem_ctrls.wrQLenPdf::19                   7603                       # What write queue length does an incoming req see
system.mem_ctrls.wrQLenPdf::20                   7552                       # What write queue length does an incoming req see
system.mem_ctrls.wrQLenPdf::21                   7546                       # What write queue length does an incoming req see
system.mem_ctrls.wrQLenPdf::22                   7649                       # What write queue length does an incoming req see
system.mem_ctrls.wrQLenPdf::23                   7531                       # What write queue length does an incoming req see
system.mem_ctrls.wrQLenPdf::24                   7548                       # What write queue length does an incoming req see
system.mem_ctrls.wrQLenPdf::25                   7536                       # What write queue length does an incoming req see
system.mem_ctrls.wrQLenPdf::26                   7570                       # What write queue length does an incoming req see
system.mem_ctrls.wrQLenPdf::27                   7525                       # What write queue length does an incoming req see
system.mem_ctrls.wrQLenPdf::28                   7506                       # What write queue length does an incoming req see
system.mem_ctrls.wrQLenPdf::29                   7499                       # What write queue length does an incoming req see
system.mem_ctrls.wrQLenPdf::30                   7469                       # What write queue length does an incoming req see
system.mem_ctrls.wrQLenPdf::31                   7466                       # What write queue length does an incoming req see
system.mem_ctrls.wrQLenPdf::32                   7466                       # What write queue length does an incoming req see
system.mem_ctrls.wrQLenPdf::33                     21                       # What write queue length does an incoming req see
system.mem_ctrls.wrQLenPdf::34                      9                       # What write queue length does an incoming req see
system.mem_ctrls.wrQLenPdf::35                      5                       # What write queue length does an incoming req see
system.mem_ctrls.wrQLenPdf::36                      3                       # What write queue length does an incoming req see
system.mem_ctrls.wrQLenPdf::37                      1                       # What write queue length does an incoming req see
system.mem_ctrls.wrQLenPdf::38                      0                       # What write queue length does an incoming req see
system.mem_ctrls.wrQLenPdf::39                      0                       # What write queue length does an incoming req see
system.mem_ctrls.wrQLenPdf::40                      0                       # What write queue length does an incoming req see
system.mem_ctrls.wrQLenPdf::41                      0                       # What write queue length does an incoming req see
system.mem_ctrls.wrQLenPdf::42                      0                       # What write queue length does an incoming req see
system.mem_ctrls.wrQLenPdf::43                      0                       # What write queue length does an incoming req see
system.mem_ctrls.wrQLenPdf::44                      0                       # What write queue length does an incoming req see
system.mem_ctrls.wrQLenPdf::45                      0                       # What write queue length does an incoming req see
system.mem_ctrls.wrQLenPdf::46                      0                       # What write queue length does an incoming req see
system.mem_ctrls.wrQLenPdf::47                      0                       # What write queue length does an incoming req see
system.mem_ctrls.wrQLenPdf::48                      0                       # What write queue length does an incoming req see
system.mem_ctrls.wrQLenPdf::49                      0                       # What write queue length does an incoming req see
system.mem_ctrls.wrQLenPdf::50                      0                       # What write queue length does an incoming req see
system.mem_ctrls.wrQLenPdf::51                      0                       # What write queue length does an incoming req see
system.mem_ctrls.wrQLenPdf::52                      0                       # What write queue length does an incoming req see
system.mem_ctrls.wrQLenPdf::53                      0                       # What write queue length does an incoming req see
system.mem_ctrls.wrQLenPdf::54                      0                       # What write queue length does an incoming req see
system.mem_ctrls.wrQLenPdf::55                      0                       # What write queue length does an incoming req see
system.mem_ctrls.wrQLenPdf::56                      0                       # What write queue length does an incoming req see
system.mem_ctrls.wrQLenPdf::57                      0                       # What write queue length does an incoming req see
system.mem_ctrls.wrQLenPdf::58                      0                       # What write queue length does an incoming req see
system.mem_ctrls.wrQLenPdf::59                      0                       # What write queue length does an incoming req see
system.mem_ctrls.wrQLenPdf::60                      0                       # What write queue length does an incoming req see
system.mem_ctrls.wrQLenPdf::61                      0                       # What write queue length does an incoming req see
system.mem_ctrls.wrQLenPdf::62                      0                       # What write queue length does an incoming req see
system.mem_ctrls.wrQLenPdf::63                      0                       # What write queue length does an incoming req see
system.mem_ctrls.bytesPerActivate::samples        83055                       # Bytes accessed per row activation
system.mem_ctrls.bytesPerActivate::mean    208.297634                       # Bytes accessed per row activation
system.mem_ctrls.bytesPerActivate::gmean   140.050964                       # Bytes accessed per row activation
system.mem_ctrls.bytesPerActivate::stdev   224.479740                       # Bytes accessed per row activation
system.mem_ctrls.bytesPerActivate::0-127        35324     42.53%     42.53% # Bytes accessed per row activation
system.mem_ctrls.bytesPerActivate::128-255        24495     29.49%     72.02% # Bytes accessed per row activation
system.mem_ctrls.bytesPerActivate::256-383        10164     12.24%     84.26% # Bytes accessed per row activation
system.mem_ctrls.bytesPerActivate::384-511         4713      5.67%     89.94% # Bytes accessed per row activation
system.mem_ctrls.bytesPerActivate::512-639         2543      3.06%     93.00% # Bytes accessed per row activation
system.mem_ctrls.bytesPerActivate::640-767         1495      1.80%     94.80% # Bytes accessed per row activation
system.mem_ctrls.bytesPerActivate::768-895          938      1.13%     95.93% # Bytes accessed per row activation
system.mem_ctrls.bytesPerActivate::896-1023          581      0.70%     96.63% # Bytes accessed per row activation
system.mem_ctrls.bytesPerActivate::1024-1151         2802      3.37%    100.00% # Bytes accessed per row activation
system.mem_ctrls.bytesPerActivate::total        83055                       # Bytes accessed per row activation
system.mem_ctrls.rdPerTurnAround::samples         7464                       # Reads before turning the bus around for writes
system.mem_ctrls.rdPerTurnAround::mean      19.958199                       # Reads before turning the bus around for writes
system.mem_ctrls.rdPerTurnAround::gmean     18.363421                       # Reads before turning the bus around for writes
system.mem_ctrls.rdPerTurnAround::stdev     12.554365                       # Reads before turning the bus around for writes
system.mem_ctrls.rdPerTurnAround::0-15           1327     17.78%     17.78% # Reads before turning the bus around for writes
system.mem_ctrls.rdPerTurnAround::16-31          5663     75.87%     93.65% # Reads before turning the bus around for writes
system.mem_ctrls.rdPerTurnAround::32-47           285      3.82%     97.47% # Reads before turning the bus around for writes
system.mem_ctrls.rdPerTurnAround::48-63            82      1.10%     98.57% # Reads before turning the bus around for writes
system.mem_ctrls.rdPerTurnAround::64-79            40      0.54%     99.10% # Reads before turning the bus around for writes
system.mem_ctrls.rdPerTurnAround::80-95            23      0.31%     99.41% # Reads before turning the bus around for writes
system.mem_ctrls.rdPerTurnAround::96-111           19      0.25%     99.67% # Reads before turning the bus around for writes
system.mem_ctrls.rdPerTurnAround::112-127            9      0.12%     99.79% # Reads before turning the bus around for writes
system.mem_ctrls.rdPerTurnAround::128-143            9      0.12%     99.91% # Reads before turning the bus around for writes
system.mem_ctrls.rdPerTurnAround::144-159            2      0.03%     99.93% # Reads before turning the bus around for writes
system.mem_ctrls.rdPerTurnAround::160-175            1      0.01%     99.95% # Reads before turning the bus around for writes
system.mem_ctrls.rdPerTurnAround::176-191            1      0.01%     99.96% # Reads before turning the bus around for writes
system.mem_ctrls.rdPerTurnAround::192-207            2      0.03%     99.99% # Reads before turning the bus around for writes
system.mem_ctrls.rdPerTurnAround::416-431            1      0.01%    100.00% # Reads before turning the bus around for writes
system.mem_ctrls.rdPerTurnAround::total          7464                       # Reads before turning the bus around for writes
system.mem_ctrls.wrPerTurnAround::samples         7464                       # Writes before turning the bus around for reads
system.mem_ctrls.wrPerTurnAround::mean      16.260852                       # Writes before turning the bus around for reads
system.mem_ctrls.wrPerTurnAround::gmean     16.243850                       # Writes before turning the bus around for reads
system.mem_ctrls.wrPerTurnAround::stdev      0.779367                       # Writes before turning the bus around for reads
system.mem_ctrls.wrPerTurnAround::16             6605     88.49%     88.49% # Writes before turning the bus around for reads
system.mem_ctrls.wrPerTurnAround::17              111      1.49%     89.98% # Writes before turning the bus around for reads
system.mem_ctrls.wrPerTurnAround::18              493      6.61%     96.58% # Writes before turning the bus around for reads
system.mem_ctrls.wrPerTurnAround::19              188      2.52%     99.10% # Writes before turning the bus around for reads
system.mem_ctrls.wrPerTurnAround::20               60      0.80%     99.91% # Writes before turning the bus around for reads
system.mem_ctrls.wrPerTurnAround::22                4      0.05%     99.96% # Writes before turning the bus around for reads
system.mem_ctrls.wrPerTurnAround::23                2      0.03%     99.99% # Writes before turning the bus around for reads
system.mem_ctrls.wrPerTurnAround::24                1      0.01%    100.00% # Writes before turning the bus around for reads
system.mem_ctrls.wrPerTurnAround::total          7464                       # Writes before turning the bus around for reads
system.mem_ctrls.bytesReadDRAM                9534016                       # Total number of bytes read from DRAM
system.mem_ctrls.bytesReadWrQ                  671168                       # Total number of bytes read from write queue
system.mem_ctrls.bytesWritten                 7767744                       # Total number of bytes written to DRAM
system.mem_ctrls.bytesReadSys                10205184                       # Total read bytes from the system interface side
system.mem_ctrls.bytesWrittenSys              7894784                       # Total written bytes from the system interface side
system.mem_ctrls.avgRdBW                       786.77                       # Average DRAM read bandwidth in MiByte/s
system.mem_ctrls.avgWrBW                       641.01                       # Average achieved write bandwidth in MiByte/s
system.mem_ctrls.avgRdBWSys                    842.16                       # Average system read bandwidth in MiByte/s
system.mem_ctrls.avgWrBWSys                    651.50                       # Average system write bandwidth in MiByte/s
system.mem_ctrls.peakBW                      12800.00                       # Theoretical peak bandwidth in MiByte/s
system.mem_ctrls.busUtil                        11.15                       # Data bus utilization in percentage
system.mem_ctrls.busUtilRead                     6.15                       # Data bus utilization in percentage for reads
system.mem_ctrls.busUtilWrite                    5.01                       # Data bus utilization in percentage for writes
system.mem_ctrls.totGap                   12117899500                       # Total gap between requests
system.mem_ctrls.avgGap                      42847.90                       # Average gap between requests
system.mem_ctrls.masterReadBytes::.cpu.inst      5069184                       # Per-master bytes read from memory
system.mem_ctrls.masterReadBytes::.cpu.data      4464832                       # Per-master bytes read from memory
system.mem_ctrls.masterWriteBytes::.writebacks      7767744                       # Per-master bytes write to memory
[...]
system.cpu.icache.tags.occ_percent::.cpu.inst            1                       # Average percentage of cache occupancy
system.cpu.icache.tags.occ_percent::total            1                       # Average percentage of cache occupancy
system.cpu.icache.tags.occ_task_id_blocks::1024          512                       # Occupied blocks per task id
system.cpu.icache.tags.age_task_id_blocks_1024::2          174                       # Occupied blocks per task id
system.cpu.icache.tags.age_task_id_blocks_1024::3          317                       # Occupied blocks per task id
system.cpu.icache.tags.age_task_id_blocks_1024::4           21                       # Occupied blocks per task id
system.cpu.icache.tags.occ_task_id_percent::1024            1                       # Percentage of cache occupancy per task id
system.cpu.icache.tags.tag_accesses         390564920                       # Number of tag accesses
system.cpu.icache.tags.data_accesses        390564920                       # Number of data accesses
system.cpu.dcache.pwrStateResidencyTicks::UNDEFINED 388610621000                       # Cumulative time (in ticks) in various power states
system.cpu.dcache.demand_hits::.cpu.data    158975056                       # number of demand (read+write) hits
system.cpu.dcache.demand_hits::total        158975056                       # number of demand (read+write) hits
system.cpu.dcache.overall_hits::.cpu.data    158975056                       # number of overall hits
system.cpu.dcache.overall_hits::total       158975056                       # number of overall hits
system.cpu.dcache.demand_misses::.cpu.data       509935                       # number of demand (read+write) misses
system.cpu.dcache.demand_misses::total         509935                       # number of demand (read+write) misses
system.cpu.dcache.overall_misses::.cpu.data       509935                       # number of overall misses
system.cpu.dcache.overall_misses::total        509935                       # number of overall misses
system.cpu.dcache.demand_miss_latency::.cpu.data  32956867500                       # number of demand (read+write) miss cycles
system.cpu.dcache.demand_miss_latency::total  32956867500                       # number of demand (read+write) miss cycles
system.cpu.dcache.overall_miss_latency::.cpu.data  32956867500                       # number of overall miss cycles
system.cpu.dcache.overall_miss_latency::total  32956867500                       # number of overall miss cycles
system.cpu.dcache.demand_accesses::.cpu.data    159484991                       # number of demand (read+write) accesses
system.cpu.dcache.demand_accesses::total    159484991                       # number of demand (read+write) accesses
system.cpu.dcache.overall_accesses::.cpu.data    159484991                       # number of overall (read+write) accesses
system.cpu.dcache.overall_accesses::total    159484991                       # number of overall (read+write) accesses
system.cpu.dcache.demand_miss_rate::.cpu.data     0.003197                       # miss rate for demand accesses
system.cpu.dcache.demand_miss_rate::total     0.003197                       # miss rate for demand accesses
system.cpu.dcache.overall_miss_rate::.cpu.data     0.003197                       # miss rate for overall accesses
system.cpu.dcache.overall_miss_rate::total     0.003197                       # miss rate for overall accesses
system.cpu.dcache.demand_avg_miss_latency::.cpu.data 64629.545923                       # average overall miss latency
system.cpu.dcache.demand_avg_miss_latency::total 64629.545923                       # average overall miss latency
system.cpu.dcache.overall_avg_miss_latency::.cpu.data 64629.545923                       # average overall miss latency
system.cpu.dcache.overall_avg_miss_latency::total 64629.545923                       # average overall miss latency
system.cpu.dcache.blocked_cycles::no_mshrs            0                       # number of cycles access was blocked
system.cpu.dcache.blocked_cycles::no_targets            0                       # number of cycles access was blocked
system.cpu.dcache.blocked::no_mshrs                 0                       # number of cycles access was blocked
system.cpu.dcache.blocked::no_targets               0                       # number of cycles access was blocked
system.cpu.dcache.avg_blocked_cycles::no_mshrs          nan                       # average number of cycles each access was blocked
system.cpu.dcache.avg_blocked_cycles::no_targets          nan                       # average number of cycles each access was blocked
system.cpu.dcache.writebacks::.writebacks       276221                       # number of writebacks
system.cpu.dcache.writebacks::total            276221                       # number of writebacks
system.cpu.dcache.demand_mshr_hits::.cpu.data       100708                       # number of demand (read+write) MSHR hits
system.cpu.dcache.demand_mshr_hits::total       100708                       # number of demand (read+write) MSHR hits
system.cpu.dcache.overall_mshr_hits::.cpu.data       100708                       # number of overall MSHR hits
system.cpu.dcache.overall_mshr_hits::total       100708                       # number of overall MSHR hits
system.cpu.dcache.demand_mshr_misses::.cpu.data       409227                       # number of demand (read+write) MSHR misses
system.cpu.dcache.demand_mshr_misses::total       409227                       # number of demand (read+write) MSHR misses
system.cpu.dcache.overall_mshr_misses::.cpu.data       409227                       # number of overall MSHR misses
system.cpu.dcache.overall_mshr_misses::total       409227                       # number of overall MSHR misses
system.cpu.dcache.overall_mshr_uncacheable_misses::.cpu.data         1740                       # number of overall MSHR uncacheable misses
system.cpu.dcache.overall_mshr_uncacheable_misses::total         1740                       # number of overall MSHR uncacheable misses
system.cpu.dcache.demand_mshr_miss_latency::.cpu.data  26377034500                       # number of demand (read+write) MSHR miss cycles
system.cpu.dcache.demand_mshr_miss_latency::total  26377034500                       # number of demand (read+write) MSHR miss cycles
system.cpu.dcache.overall_mshr_miss_latency::.cpu.data  26377034500                       # number of overall MSHR miss cycles
system.cpu.dcache.overall_mshr_miss_latency::total  26377034500                       # number of overall MSHR miss cycles
system.cpu.dcache.overall_mshr_uncacheable_latency::.cpu.data     78030500                       # number of overall MSHR uncacheable cycles
system.cpu.dcache.overall_mshr_uncacheable_latency::total     78030500                       # number of overall MSHR uncacheable cycles
system.cpu.dcache.demand_mshr_miss_rate::.cpu.data     0.002566                       # mshr miss rate for demand accesses
system.cpu.dcache.demand_mshr_miss_rate::total     0.002566                       # mshr miss rate for demand accesses
system.cpu.dcache.overall_mshr_miss_rate::.cpu.data     0.002566                       # mshr miss rate for overall accesses
system.cpu.dcache.overall_mshr_miss_rate::total     0.002566                       # mshr miss rate for overall accesses
system.cpu.dcache.demand_avg_mshr_miss_latency::.cpu.data 64455.753164                       # average overall mshr miss latency
system.cpu.dcache.demand_avg_mshr_miss_latency::total 64455.753164                       # average overall mshr miss latency
system.cpu.dcache.overall_avg_mshr_miss_latency::.cpu.data 64455.753164                       # average overall mshr miss latency
system.cpu.dcache.overall_avg_mshr_miss_latency::total 64455.753164                       # average overall mshr miss latency
system.cpu.dcache.overall_avg_mshr_uncacheable_latency::.cpu.data 44845.114943                       # average overall mshr uncacheable latency
system.cpu.dcache.overall_avg_mshr_uncacheable_latency::total 44845.114943                       # average overall mshr uncacheable latency
system.cpu.dcache.replacements                 412240                       # number of replacements
system.cpu.dcache.ReadReq_hits::.cpu.data    110642193                       # number of ReadReq hits
system.cpu.dcache.ReadReq_hits::total       110642193                       # number of ReadReq hits
system.cpu.dcache.ReadReq_misses::.cpu.data       289941                       # number of ReadReq misses
system.cpu.dcache.ReadReq_misses::total        289941                       # number of ReadReq misses
system.cpu.dcache.ReadReq_miss_latency::.cpu.data  19692962500                       # number of ReadReq miss cycles
system.cpu.dcache.ReadReq_miss_latency::total  19692962500                       # number of ReadReq miss cycles
system.cpu.dcache.ReadReq_accesses::.cpu.data    110932134                       # number of ReadReq accesses(hits+misses)
system.cpu.dcache.ReadReq_accesses::total    110932134                       # number of ReadReq accesses(hits+misses)
system.cpu.dcache.ReadReq_miss_rate::.cpu.data     0.002614                       # miss rate for ReadReq accesses
system.cpu.dcache.ReadReq_miss_rate::total     0.002614                       # miss rate for ReadReq accesses
system.cpu.dcache.ReadReq_avg_miss_latency::.cpu.data 67920.585567                       # average ReadReq miss latency
system.cpu.dcache.ReadReq_avg_miss_latency::total 67920.585567                       # average ReadReq miss latency
system.cpu.dcache.ReadReq_mshr_hits::.cpu.data          535                       # number of ReadReq MSHR hits
system.cpu.dcache.ReadReq_mshr_hits::total          535                       # number of ReadReq MSHR hits
system.cpu.dcache.ReadReq_mshr_misses::.cpu.data       289406                       # number of ReadReq MSHR misses
system.cpu.dcache.ReadReq_mshr_misses::total       289406                       # number of ReadReq MSHR misses
system.cpu.dcache.ReadReq_mshr_uncacheable::.cpu.data          500                       # number of ReadReq MSHR uncacheable
system.cpu.dcache.ReadReq_mshr_uncacheable::total          500                       # number of ReadReq MSHR uncacheable
system.cpu.dcache.ReadReq_mshr_miss_latency::.cpu.data  19366179500                       # number of ReadReq MSHR miss cycles
system.cpu.dcache.ReadReq_mshr_miss_latency::total  19366179500                       # number of ReadReq MSHR miss cycles
system.cpu.dcache.ReadReq_mshr_uncacheable_latency::.cpu.data     78030500                       # number of ReadReq MSHR uncacheable cycles
system.cpu.dcache.ReadReq_mshr_uncacheable_latency::total     78030500                       # number of ReadReq MSHR uncacheable cycles
system.cpu.dcache.ReadReq_mshr_miss_rate::.cpu.data     0.002609                       # mshr miss rate for ReadReq accesses
system.cpu.dcache.ReadReq_mshr_miss_rate::total     0.002609                       # mshr miss rate for ReadReq accesses
system.cpu.dcache.ReadReq_avg_mshr_miss_latency::.cpu.data 66916.993773                       # average ReadReq mshr miss latency
system.cpu.dcache.ReadReq_avg_mshr_miss_latency::total 66916.993773                       # average ReadReq mshr miss latency
system.cpu.dcache.ReadReq_avg_mshr_uncacheable_latency::.cpu.data       156061                       # average ReadReq mshr uncacheable latency
system.cpu.dcache.ReadReq_avg_mshr_uncacheable_latency::total       156061                       # average ReadReq mshr uncacheable latency
system.cpu.dcache.WriteReq_hits::.cpu.data     48332863                       # number of WriteReq hits
system.cpu.dcache.WriteReq_hits::total       48332863                       # number of WriteReq hits
system.cpu.dcache.WriteReq_misses::.cpu.data       219994                       # number of WriteReq misses
system.cpu.dcache.WriteReq_misses::total       219994                       # number of WriteReq misses
system.cpu.dcache.WriteReq_miss_latency::.cpu.data  13263905000                       # number of WriteReq miss cycles
system.cpu.dcache.WriteReq_miss_latency::total  13263905000                       # number of WriteReq miss cycles
system.cpu.dcache.WriteReq_accesses::.cpu.data     48552857                       # number of WriteReq accesses(hits+misses)
system.cpu.dcache.WriteReq_accesses::total     48552857                       # number of WriteReq accesses(hits+misses)
system.cpu.dcache.WriteReq_miss_rate::.cpu.data     0.004531                       # miss rate for WriteReq accesses
system.cpu.dcache.WriteReq_miss_rate::total     0.004531                       # miss rate for WriteReq accesses
system.cpu.dcache.WriteReq_avg_miss_latency::.cpu.data 60292.121603                       # average WriteReq miss latency
system.cpu.dcache.WriteReq_avg_miss_latency::total 60292.121603                       # average WriteReq miss latency
system.cpu.dcache.WriteReq_mshr_hits::.cpu.data       100173                       # number of WriteReq MSHR hits
system.cpu.dcache.WriteReq_mshr_hits::total       100173                       # number of WriteReq MSHR hits
system.cpu.dcache.WriteReq_mshr_misses::.cpu.data       119821                       # number of WriteReq MSHR misses
system.cpu.dcache.WriteReq_mshr_misses::total       119821                       # number of WriteReq MSHR misses
system.cpu.dcache.WriteReq_mshr_uncacheable::.cpu.data         1240                       # number of WriteReq MSHR uncacheable
system.cpu.dcache.WriteReq_mshr_uncacheable::total         1240                       # number of WriteReq MSHR uncacheable
system.cpu.dcache.WriteReq_mshr_miss_latency::.cpu.data   7010855000                       # number of WriteReq MSHR miss cycles
system.cpu.dcache.WriteReq_mshr_miss_latency::total   7010855000                       # number of WriteReq MSHR miss cycles
system.cpu.dcache.WriteReq_mshr_miss_rate::.cpu.data     0.002468                       # mshr miss rate for WriteReq accesses
system.cpu.dcache.WriteReq_mshr_miss_rate::total     0.002468                       # mshr miss rate for WriteReq accesses
system.cpu.dcache.WriteReq_avg_mshr_miss_latency::.cpu.data 58511.070680                       # average WriteReq mshr miss latency
system.cpu.dcache.WriteReq_avg_mshr_miss_latency::total 58511.070680                       # average WriteReq mshr miss latency
system.cpu.dcache.LoadLockedReq_hits::.cpu.data     10999584                       # number of LoadLockedReq hits
system.cpu.dcache.LoadLockedReq_hits::total     10999584                       # number of LoadLockedReq hits
system.cpu.dcache.LoadLockedReq_misses::.cpu.data         3033                       # number of LoadLockedReq misses
system.cpu.dcache.LoadLockedReq_misses::total         3033                       # number of LoadLockedReq misses
system.cpu.dcache.LoadLockedReq_miss_latency::.cpu.data    235313500                       # number of LoadLockedReq miss cycles
system.cpu.dcache.LoadLockedReq_miss_latency::total    235313500                       # number of LoadLockedReq miss cycles
system.cpu.dcache.LoadLockedReq_accesses::.cpu.data     11002617                       # number of LoadLockedReq accesses(hits+misses)
system.cpu.dcache.LoadLockedReq_accesses::total     11002617                       # number of LoadLockedReq accesses(hits+misses)
system.cpu.dcache.LoadLockedReq_miss_rate::.cpu.data     0.000276                       # miss rate for LoadLockedReq accesses
system.cpu.dcache.LoadLockedReq_miss_rate::total     0.000276                       # miss rate for LoadLockedReq accesses
system.cpu.dcache.LoadLockedReq_avg_miss_latency::.cpu.data 77584.404880                       # average LoadLockedReq miss latency
system.cpu.dcache.LoadLockedReq_avg_miss_latency::total 77584.404880                       # average LoadLockedReq miss latency
system.cpu.dcache.LoadLockedReq_mshr_hits::.cpu.data            9                       # number of LoadLockedReq MSHR hits
system.cpu.dcache.LoadLockedReq_mshr_hits::total            9                       # number of LoadLockedReq MSHR hits
system.cpu.dcache.LoadLockedReq_mshr_misses::.cpu.data         3024                       # number of LoadLockedReq MSHR misses
system.cpu.dcache.LoadLockedReq_mshr_misses::total         3024                       # number of LoadLockedReq MSHR misses
system.cpu.dcache.LoadLockedReq_mshr_miss_latency::.cpu.data    231733000                       # number of LoadLockedReq MSHR miss cycles
system.cpu.dcache.LoadLockedReq_mshr_miss_latency::total    231733000                       # number of LoadLockedReq MSHR miss cycles
system.cpu.dcache.LoadLockedReq_mshr_miss_rate::.cpu.data     0.000275                       # mshr miss rate for LoadLockedReq accesses
system.cpu.dcache.LoadLockedReq_mshr_miss_rate::total     0.000275                       # mshr miss rate for LoadLockedReq accesses
system.cpu.dcache.LoadLockedReq_avg_mshr_miss_latency::.cpu.data 76631.283069                       # average LoadLockedReq mshr miss latency
system.cpu.dcache.LoadLockedReq_avg_mshr_miss_latency::total 76631.283069                       # average LoadLockedReq mshr miss latency
system.cpu.dcache.StoreCondReq_hits::.cpu.data     11002595                       # number of StoreCondReq hits
system.cpu.dcache.StoreCondReq_hits::total     11002595                       # number of StoreCondReq hits
system.cpu.dcache.StoreCondReq_accesses::.cpu.data     11002595                       # number of StoreCondReq accesses(hits+misses)
system.cpu.dcache.StoreCondReq_accesses::total     11002595                       # number of StoreCondReq accesses(hits+misses)
system.cpu.dcache.tags.pwrStateResidencyTicks::UNDEFINED 388610621000                       # Cumulative time (in ticks) in various power states
system.cpu.dcache.tags.tagsinuse                 1024                       # Cycle average of tags in use
system.cpu.dcache.tags.total_refs           181462235                       # Total number of references to valid blocks.
system.cpu.dcache.tags.sampled_refs            413264                       # Sample count of references to valid blocks.
system.cpu.dcache.tags.avg_refs            439.095191                       # Average number of references to valid blocks.
system.cpu.dcache.tags.warmup_cycle                 0                       # Cycle when the warmup percentage was hit.
system.cpu.dcache.tags.occ_blocks::.cpu.data         1024                       # Average occupied blocks per requestor
system.cpu.dcache.tags.occ_percent::.cpu.data            1                       # Average percentage of cache occupancy
system.cpu.dcache.tags.occ_percent::total            1                       # Average percentage of cache occupancy
system.cpu.dcache.tags.occ_task_id_blocks::1024         1024                       # Occupied blocks per task id
system.cpu.dcache.tags.age_task_id_blocks_1024::0            2                       # Occupied blocks per task id
system.cpu.dcache.tags.age_task_id_blocks_1024::1           38                       # Occupied blocks per task id
system.cpu.dcache.tags.age_task_id_blocks_1024::2          589                       # Occupied blocks per task id
system.cpu.dcache.tags.age_task_id_blocks_1024::3          366                       # Occupied blocks per task id
system.cpu.dcache.tags.age_task_id_blocks_1024::4           29                       # Occupied blocks per task id
system.cpu.dcache.tags.occ_task_id_percent::1024            1                       # Percentage of cache occupancy per task id
system.cpu.dcache.tags.tag_accesses         363392646                       # Number of tag accesses
system.cpu.dcache.tags.data_accesses        363392646                       # Number of data accesses

---------- End Simulation Statistics   ----------
