
---------- Begin Simulation Statistics ----------
final_tick                               2542165960500                       # Number of ticks from beginning of simulation (restored from checkpoints and never reset)
host_inst_rate                                 192224                       # Simulator instruction rate (inst/s)
host_mem_usage                                 746820                       # Number of bytes of host memory used
host_op_rate                                   192223                       # Simulator op (including micro ops) rate (op/s)
host_seconds                                    21.83                       # Real time elapsed on the host
host_tick_rate                              556778328                       # Simulator tick rate (ticks/s)
sim_freq                                 1000000000000                       # Frequency of simulated ticks
sim_insts                                     4196791                       # Number of instructions simulated
sim_ops                                       4196791                       # Number of ops (including micro ops) simulated
sim_seconds                                  0.012156                       # Number of seconds simulated
sim_ticks                                 12156115500                       # Number of ticks simulated
system.cpu.branchPred.BTBCorrect                    0                       # Number of correct BTB predictions (this stat may not work properly.
system.cpu.branchPred.BTBHitPct             52.445920                       # BTB Hit Percentage
system.cpu.branchPred.BTBHits                  368420                       # Number of BTB hits
system.cpu.branchPred.BTBLookups               702476                       # Number of BTB lookups
system.cpu.branchPred.RASInCorrect               2629                       # Number of incorrect RAS predictions.
system.cpu.branchPred.condIncorrect            113008                       # Number of conditional branches incorrect
system.cpu.branchPred.condPredicted            964277                       # Number of conditional branches predicted
system.cpu.branchPred.indirectHits              28614                       # Number of indirect target hits.
system.cpu.branchPred.indirectLookups          181527                       # Number of indirect predictor lookups.
system.cpu.branchPred.indirectMisses           152913                       # Number of indirect misses.
system.cpu.branchPred.lookups                 1168527                       # Number of BP lookups
system.cpu.branchPred.usedRAS                   71064                       # Number of times the RAS was used to get a target.
system.cpu.branchPredindirectMispredicted        28750                       # Number of mispredicted indirect branches.
system.cpu.committedInsts                     4196791                       # Number of instructions committed
system.cpu.committedOps                       4196791                       # Number of ops (including micro ops) committed
system.cpu.cpi                               5.789758                       # CPI: cycles per instruction
system.cpu.discardedOps                        316474                       # Number of ops (including micro ops) which were discarded before commit
system.cpu.dtb.data_accesses                   618339                       # DTB accesses
system.cpu.dtb.data_acv                           129                       # DTB access violations
system.cpu.dtb.data_hits                      1478596                       # DTB hits
system.cpu.dtb.data_misses                       8477                       # DTB misses
system.cpu.dtb.fetch_accesses                       0                       # ITB accesses
system.cpu.dtb.fetch_acv                            0                       # ITB acv
system.cpu.dtb.fetch_hits                           0                       # ITB hits
system.cpu.dtb.fetch_misses                         0                       # ITB misses
system.cpu.dtb.read_accesses                   416601                       # DTB read accesses
system.cpu.dtb.read_acv                            43                       # DTB read access violations
system.cpu.dtb.read_hits                       874588                       # DTB read hits
system.cpu.dtb.read_misses                       7570                       # DTB read misses
system.cpu.dtb.write_accesses                  201738                       # DTB write accesses
system.cpu.dtb.write_acv                           86                       # DTB write access violations
system.cpu.dtb.write_hits                      604008                       # DTB write hits
system.cpu.dtb.write_misses                       907                       # DTB write misses
system.cpu.fetch2.amo_instructions                  0                       # Number of memory atomic instructions successfully decoded
system.cpu.fetch2.fp_instructions               18273                       # Number of floating point instructions successfully decoded
system.cpu.fetch2.int_instructions            3687911                       # Number of integer instructions successfully decoded
system.cpu.fetch2.load_instructions           1158497                       # Number of memory load instructions successfully decoded
system.cpu.fetch2.store_instructions           685433                       # Number of memory store instructions successfully decoded
system.cpu.fetch2.vec_instructions                  0                       # Number of SIMD instructions successfully decoded
system.cpu.idleCycles                        17086580                       # Total number of cycles that the object has spent stopped
system.cpu.ipc                               0.172719                       # IPC: instructions per cycle
system.cpu.itb.data_accesses                        0                       # DTB accesses
system.cpu.itb.data_acv                             0                       # DTB access violations
system.cpu.itb.data_hits                            0                       # DTB hits
system.cpu.itb.data_misses                          0                       # DTB misses
system.cpu.itb.fetch_accesses                  983443                       # ITB accesses
system.cpu.itb.fetch_acv                          334                       # ITB acv
system.cpu.itb.fetch_hits                      978158                       # ITB hits
system.cpu.itb.fetch_misses                      5285                       # ITB misses
system.cpu.itb.read_accesses                        0                       # DTB read accesses
system.cpu.itb.read_acv                             0                       # DTB read access violations
system.cpu.itb.read_hits                            0                       # DTB read hits
system.cpu.itb.read_misses                          0                       # DTB read misses
system.cpu.itb.write_accesses                       0                       # DTB write accesses
system.cpu.itb.write_acv                            0                       # DTB write access violations
system.cpu.itb.write_hits                           0                       # DTB write hits
system.cpu.itb.write_misses                         0                       # DTB write misses
system.cpu.kern.callpal::swpctx                   574      9.40%      9.40% # number of callpals executed
system.cpu.kern.callpal::tbi                       25      0.41%      9.81% # number of callpals executed
system.cpu.kern.callpal::swpipl                  4238     69.43%     79.24% # number of callpals executed
system.cpu.kern.callpal::rdps                      50      0.82%     80.06% # number of callpals executed
system.cpu.kern.callpal::wrusp                      4      0.07%     80.13% # number of callpals executed
system.cpu.kern.callpal::rdusp                      3      0.05%     80.18% # number of callpals executed
system.cpu.kern.callpal::rti                      897     14.70%     94.87% # number of callpals executed
system.cpu.kern.callpal::callsys                  235      3.85%     98.72% # number of callpals executed
system.cpu.kern.callpal::imb                       78      1.28%    100.00% # number of callpals executed
system.cpu.kern.callpal::total                   6104                       # number of callpals executed
system.cpu.kern.inst.arm                            0                       # number of arm instructions executed
system.cpu.kern.inst.hwrei                      14448                       # number of hwrei instructions executed
system.cpu.kern.inst.quiesce                        9                       # number of quiesce instructions executed
system.cpu.kern.ipl_count::0                     2438     47.31%     47.31% # number of times we switched to this ipl
system.cpu.kern.ipl_count::21                       5      0.10%     47.41% # number of times we switched to this ipl
system.cpu.kern.ipl_count::22                      13      0.25%     47.66% # number of times we switched to this ipl
system.cpu.kern.ipl_count::31                    2697     52.34%    100.00% # number of times we switched to this ipl
system.cpu.kern.ipl_count::total                 5153                       # number of times we switched to this ipl
system.cpu.kern.ipl_good::0                      2425     49.82%     49.82% # number of times we switched to this ipl from a different ipl
system.cpu.kern.ipl_good::21                        5      0.10%     49.92% # number of times we switched to this ipl from a different ipl
system.cpu.kern.ipl_good::22                       13      0.27%     50.18% # number of times we switched to this ipl from a different ipl
system.cpu.kern.ipl_good::31                     2425     49.82%    100.00% # number of times we switched to this ipl from a different ipl
system.cpu.kern.ipl_good::total                  4868                       # number of times we switched to this ipl from a different ipl
system.cpu.kern.ipl_ticks::0              11198520500     92.09%     92.09% # number of cycles we spent at this ipl
system.cpu.kern.ipl_ticks::21                 9447500      0.08%     92.17% # number of cycles we spent at this ipl
system.cpu.kern.ipl_ticks::22                19368000      0.16%     92.33% # number of cycles we spent at this ipl
system.cpu.kern.ipl_ticks::31               932841000      7.67%    100.00% # number of cycles we spent at this ipl
system.cpu.kern.ipl_ticks::total          12160177000                       # number of cycles we spent at this ipl
system.cpu.kern.ipl_used::0                  0.994668                       # fraction of swpipl calls that actually changed the ipl
system.cpu.kern.ipl_used::21                        1                       # fraction of swpipl calls that actually changed the ipl
system.cpu.kern.ipl_used::22                        1                       # fraction of swpipl calls that actually changed the ipl
system.cpu.kern.ipl_used::31                 0.899147                       # fraction of swpipl calls that actually changed the ipl
system.cpu.kern.ipl_used::total              0.944692                       # fraction of swpipl calls that actually changed the ipl
system.cpu.kern.mode_good::kernel                 872                      
system.cpu.kern.mode_good::user                   872                      
system.cpu.kern.mode_good::idle                     0                      
system.cpu.kern.mode_switch::kernel              1471                       # number of protection mode switches
system.cpu.kern.mode_switch::user                 872                       # number of protection mode switches
system.cpu.kern.mode_switch::idle                   0                       # number of protection mode switches
system.cpu.kern.mode_switch_good::kernel     0.592794                       # fraction of useful protection mode switches
system.cpu.kern.mode_switch_good::user              1                       # fraction of useful protection mode switches
system.cpu.kern.mode_switch_good::idle            nan                       # fraction of useful protection mode switches
system.cpu.kern.mode_switch_good::total      0.744345                       # fraction of useful protection mode switches
system.cpu.kern.mode_ticks::kernel         8198743500     67.42%     67.42% # number of ticks spent at the given mode
system.cpu.kern.mode_ticks::user           3961433500     32.58%    100.00% # number of ticks spent at the given mode
system.cpu.kern.mode_ticks::idle                    0      0.00%    100.00% # number of ticks spent at the given mode
system.cpu.kern.swap_context                      574                       # number of times the context was actually changed
system.cpu.numCycles                         24298403                       # number of cpu cycles simulated
system.cpu.numFetchSuspends                         9                       # Number of times Execute suspended instruction fetching
system.cpu.numWorkItemsCompleted                    0                       # number of work items this cpu completed
system.cpu.numWorkItemsStarted                      0                       # number of work items this cpu started
system.cpu.op_class_0::No_OpClass               85405      2.04%      2.04% # Class of committed instruction
system.cpu.op_class_0::IntAlu                 2541942     60.57%     62.60% # Class of committed instruction
system.cpu.op_class_0::IntMult                   3684      0.09%     62.69% # Class of committed instruction
system.cpu.op_class_0::IntDiv                       0      0.00%     62.69% # Class of committed instruction
system.cpu.op_class_0::FloatAdd                  8286      0.20%     62.89% # Class of committed instruction
system.cpu.op_class_0::FloatCmp                     0      0.00%     62.89% # Class of committed instruction
system.cpu.op_class_0::FloatCvt                     0      0.00%     62.89% # Class of committed instruction
system.cpu.op_class_0::FloatMult                    0      0.00%     62.89% # Class of committed instruction
system.cpu.op_class_0::FloatMultAcc                 0      0.00%     62.89% # Class of committed instruction
system.cpu.op_class_0::FloatDiv                  1593      0.04%     62.93% # Class of committed instruction
system.cpu.op_class_0::FloatMisc                    0      0.00%     62.93% # Class of committed instruction
system.cpu.op_class_0::FloatSqrt                    0      0.00%     62.93% # Class of committed instruction
system.cpu.op_class_0::SimdAdd                      0      0.00%     62.93% # Class of committed instruction
system.cpu.op_class_0::SimdAddAcc                   0      0.00%     62.93% # Class of committed instruction
system.cpu.op_class_0::SimdAlu                      0      0.00%     62.93% # Class of committed instruction
system.cpu.op_class_0::SimdCmp                      0      0.00%     62.93% # Class of committed instruction
system.cpu.op_class_0::SimdCvt                      0      0.00%     62.93% # Class of committed instruction
system.cpu.op_class_0::SimdMisc                     0      0.00%     62.93% # Class of committed instruction
system.cpu.op_class_0::SimdMult                     0      0.00%     62.93% # Class of committed instruction
system.cpu.op_class_0::SimdMultAcc                  0      0.00%     62.93% # Class of committed instruction
system.cpu.op_class_0::SimdShift                    0      0.00%     62.93% # Class of committed instruction
system.cpu.op_class_0::SimdShiftAcc                 0      0.00%     62.93% # Class of committed instruction
system.cpu.op_class_0::SimdDiv                      0      0.00%     62.93% # Class of committed instruction
system.cpu.op_class_0::SimdSqrt                     0      0.00%     62.93% # Class of committed instruction
system.cpu.op_class_0::SimdFloatAdd                 0      0.00%     62.93% # Class of committed instruction
system.cpu.op_class_0::SimdFloatAlu                 0      0.00%     62.93% # Class of committed instruction
system.cpu.op_class_0::SimdFloatCmp                 0      0.00%     62.93% # Class of committed instruction
system.cpu.op_class_0::SimdFloatCvt                 0      0.00%     62.93% # Class of committed instruction
system.cpu.op_class_0::SimdFloatDiv                 0      0.00%     62.93% # Class of committed instruction
system.cpu.op_class_0::SimdFloatMisc                0      0.00%     62.93% # Class of committed instruction
system.cpu.op_class_0::SimdFloatMult                0      0.00%     62.93% # Class of committed instruction
system.cpu.op_class_0::SimdFloatMultAcc             0      0.00%     62.93% # Class of committed instruction
system.cpu.op_class_0::SimdFloatSqrt                0      0.00%     62.93% # Class of committed instruction
system.cpu.op_class_0::SimdReduceAdd                0      0.00%     62.93% # Class of committed instruction
system.cpu.op_class_0::SimdReduceAlu                0      0.00%     62.93% # Class of committed instruction
system.cpu.op_class_0::SimdReduceCmp                0      0.00%     62.93% # Class of committed instruction
system.cpu.op_class_0::SimdFloatReduceAdd            0      0.00%     62.93% # Class of committed instruction
system.cpu.op_class_0::SimdFloatReduceCmp            0      0.00%     62.93% # Class of committed instruction
system.cpu.op_class_0::SimdAes                      0      0.00%     62.93% # Class of committed instruction
system.cpu.op_class_0::SimdAesMix                   0      0.00%     62.93% # Class of committed instruction
system.cpu.op_class_0::SimdSha1Hash                 0      0.00%     62.93% # Class of committed instruction
system.cpu.op_class_0::SimdSha1Hash2                0      0.00%     62.93% # Class of committed instruction
system.cpu.op_class_0::SimdSha256Hash               0      0.00%     62.93% # Class of committed instruction
system.cpu.op_class_0::SimdSha256Hash2              0      0.00%     62.93% # Class of committed instruction
system.cpu.op_class_0::SimdShaSigma2                0      0.00%     62.93% # Class of committed instruction
system.cpu.op_class_0::SimdShaSigma3                0      0.00%     62.93% # Class of committed instruction
system.cpu.op_class_0::SimdPredAlu                  0      0.00%     62.93% # Class of committed instruction
system.cpu.op_class_0::MemRead                 839492     20.00%     82.93% # Class of committed instruction
system.cpu.op_class_0::MemWrite                592661     14.12%     97.05% # Class of committed instruction
system.cpu.op_class_0::FloatMemRead              9988      0.24%     97.29% # Class of committed instruction
system.cpu.op_class_0::FloatMemWrite             8788      0.21%     97.50% # Class of committed instruction
system.cpu.op_class_0::IprAccess               104952      2.50%    100.00% # Class of committed instruction
system.cpu.op_class_0::InstPrefetch                 0      0.00%    100.00% # Class of committed instruction
system.cpu.op_class_0::total                  4196791                       # Class of committed instruction
system.cpu.quiesceCycles                        13828                       # Total number of cycles that CPU has spent quiesced or waiting for an interrupt
system.cpu.tickCycles                         7211823                       # Number of cycles that the object actually ticked
system.disk0.dma_read_bytes                         0                       # Number of bytes transfered via DMA reads (not PRD).
system.disk0.dma_read_full_pages                    0                       # Number of full page size DMA reads (not PRD).
system.disk0.dma_read_txs                           0                       # Number of DMA read transactions (not PRD).
system.disk0.dma_write_bytes                    12288                       # Number of bytes transfered via DMA writes.
system.disk0.dma_write_full_pages                   0                       # Number of full page size DMA writes.
system.disk0.dma_write_txs                          3                       # Number of DMA write transactions.
system.disk2.dma_read_bytes                         0                       # Number of bytes transfered via DMA reads (not PRD).
system.disk2.dma_read_full_pages                    0                       # Number of full page size DMA reads (not PRD).
system.disk2.dma_read_txs                           0                       # Number of DMA read transactions (not PRD).
system.disk2.dma_write_bytes                        0                       # Number of bytes transfered via DMA writes.
system.disk2.dma_write_full_pages                   0                       # Number of full page size DMA writes.
system.disk2.dma_write_txs                          0                       # Number of DMA write transactions.
system.membus.snoop_filter.hit_multi_requests          443                       # Number of requests hitting in the snoop filter with multiple (>1) holders of the requested data.
system.membus.snoop_filter.hit_multi_snoops            0                       # Number of snoops hitting in the snoop filter with multiple (>1) holders of the requested data.
system.membus.snoop_filter.hit_single_requests       158364                       # Number of requests hitting in the snoop filter with a single holder of the requested data.
system.membus.snoop_filter.hit_single_snoops            0                       # Number of snoops hitting in the snoop filter with a single holder of the requested data.
system.membus.snoop_filter.tot_requests        318335                       # Total number of requests made to the snoop filter.
system.membus.snoop_filter.tot_snoops               0                       # Total number of snoops made to the snoop filter.
system.tsunami.ethernet.coalescedRxDesc           nan                       # average number of RxDesc's coalesced into each post
system.tsunami.ethernet.coalescedRxIdle           nan                       # average number of RxIdle's coalesced into each post
system.tsunami.ethernet.coalescedRxOk             nan                       # average number of RxOk's coalesced into each post
system.tsunami.ethernet.coalescedRxOrn            nan                       # average number of RxOrn's coalesced into each post
system.tsunami.ethernet.coalescedSwi              nan                       # average number of Swi's coalesced into each post
system.tsunami.ethernet.coalescedTotal            nan                       # average number of interrupts coalesced into each post
system.tsunami.ethernet.coalescedTxDesc           nan                       # average number of TxDesc's coalesced into each post
system.tsunami.ethernet.coalescedTxIdle           nan                       # average number of TxIdle's coalesced into each post
system.tsunami.ethernet.coalescedTxOk             nan                       # average number of TxOk's coalesced into each post
system.tsunami.ethernet.descDMAReads                0                       # Number of descriptors the device read w/ DMA
system.tsunami.ethernet.descDMAWrites               0                       # Number of descriptors the device wrote w/ DMA
system.tsunami.ethernet.descDmaReadBytes            0                       # number of descriptor bytes read w/ DMA
system.tsunami.ethernet.descDmaWriteBytes            0                       # number of descriptor bytes write w/ DMA
system.tsunami.ethernet.droppedPackets              0                       # number of packets dropped
system.tsunami.ethernet.postedInterrupts            0                       # number of posts to CPU
system.tsunami.ethernet.postedRxDesc                0                       # number of RxDesc interrupts posted to CPU
system.tsunami.ethernet.postedRxIdle                0                       # number of rxIdle interrupts posted to CPU
system.tsunami.ethernet.postedRxOk                  0                       # number of RxOk interrupts posted to CPU
system.tsunami.ethernet.postedRxOrn                 0                       # number of RxOrn posted to CPU
system.tsunami.ethernet.postedSwi                   0                       # number of software interrupts posted to CPU
system.tsunami.ethernet.postedTxDesc                0                       # number of TxDesc interrupts posted to CPU
system.tsunami.ethernet.postedTxIdle                0                       # number of TxIdle interrupts posted to CPU
system.tsunami.ethernet.postedTxOk                  0                       # number of TxOk interrupts posted to CPU
system.tsunami.ethernet.totalRxDesc                 0                       # total number of RxDesc written to ISR
system.tsunami.ethernet.totalRxIdle                 0                       # total number of RxIdle written to ISR
system.tsunami.ethernet.totalRxOk                   0                       # total number of RxOk written to ISR
system.tsunami.ethernet.totalRxOrn                  0                       # total number of RxOrn written to ISR
system.tsunami.ethernet.totalSwi                    0                       # total number of Swi written to ISR
system.tsunami.ethernet.totalTxDesc                 0                       # total number of TxDesc written to ISR
system.tsunami.ethernet.totalTxIdle                 0                       # total number of TxIdle written to ISR
system.tsunami.ethernet.totalTxOk                   0                       # total number of TxOk written to ISR
system.bridge.pwrStateResidencyTicks::UNDEFINED 2542165960500                       # Cumulative time (in ticks) in various power states
system.voltage_domain.voltage                       1                       # Voltage in Volts
system.iocache.pwrStateResidencyTicks::UNDEFINED 2542165960500                       # Cumulative time (in ticks) in various power states
system.iocache.demand_misses::.tsunami.ide          195                       # number of demand (read+write) misses
system.iocache.demand_misses::total               195                       # number of demand (read+write) misses
system.iocache.overall_misses::.tsunami.ide          195                       # number of overall misses
system.iocache.overall_misses::total              195                       # number of overall misses
system.iocache.demand_miss_latency::.tsunami.ide     22839458                       # number of demand (read+write) miss cycles
system.iocache.demand_miss_latency::total     22839458                       # number of demand (read+write) miss cycles
system.iocache.overall_miss_latency::.tsunami.ide     22839458                       # number of overall miss cycles
system.iocache.overall_miss_latency::total     22839458                       # number of overall miss cycles
system.iocache.demand_accesses::.tsunami.ide          195                       # number of demand (read+write) accesses
system.iocache.demand_accesses::total             195                       # number of demand (read+write) accesses
system.iocache.overall_accesses::.tsunami.ide          195                       # number of overall (read+write) accesses
system.iocache.overall_accesses::total            195                       # number of overall (read+write) accesses
system.iocache.demand_miss_rate::.tsunami.ide            1                       # miss rate for demand accesses
system.iocache.demand_miss_rate::total              1                       # miss rate for demand accesses
system.iocache.overall_miss_rate::.tsunami.ide            1                       # miss rate for overall accesses
system.iocache.overall_miss_rate::total             1                       # miss rate for overall accesses
system.iocache.demand_avg_miss_latency::.tsunami.ide 117125.425641                       # average overall miss latency
system.iocache.demand_avg_miss_latency::total 117125.425641                       # average overall miss latency
system.iocache.overall_avg_miss_latency::.tsunami.ide 117125.425641                       # average overall miss latency
system.iocache.overall_avg_miss_latency::total 117125.425641                       # average overall miss latency
system.iocache.blocked_cycles::no_mshrs             0                       # number of cycles access was blocked
system.iocache.blocked_cycles::no_targets            0                       # number of cycles access was blocked
system.iocache.blocked::no_mshrs                    0                       # number of cycles access was blocked
system.iocache.blocked::no_targets                  0                       # number of cycles access was blocked
system.iocache.avg_blocked_cycles::no_mshrs          nan                       # average number of cycles each access was blocked
system.iocache.avg_blocked_cycles::no_targets          nan                       # average number of cycles each access was blocked
system.iocache.writebacks::.writebacks            176                       # number of writebacks
system.iocache.writebacks::total                  176                       # number of writebacks
system.iocache.demand_mshr_misses::.tsunami.ide          195                       # number of demand (read+write) MSHR misses
system.iocache.demand_mshr_misses::total          195                       # number of demand (read+write) MSHR misses
system.iocache.overall_mshr_misses::.tsunami.ide          195                       # number of overall MSHR misses
system.iocache.overall_mshr_misses::total          195                       # number of overall MSHR misses
system.iocache.demand_mshr_miss_latency::.tsunami.ide     13078483                       # number of demand (read+write) MSHR miss cycles
system.iocache.demand_mshr_miss_latency::total     13078483                       # number of demand (read+write) MSHR miss cycles
system.iocache.overall_mshr_miss_latency::.tsunami.ide     13078483                       # number of overall MSHR miss cycles
system.iocache.overall_mshr_miss_latency::total     13078483                       # number of overall MSHR miss cycles
system.iocache.demand_mshr_miss_rate::.tsunami.ide            1                       # mshr miss rate for demand accesses
system.iocache.demand_mshr_miss_rate::total            1                       # mshr miss rate for demand accesses
system.iocache.overall_mshr_miss_rate::.tsunami.ide            1                       # mshr miss rate for overall accesses
system.iocache.overall_mshr_miss_rate::total            1                       # mshr miss rate for overall accesses
system.iocache.demand_avg_mshr_miss_latency::.tsunami.ide 67069.143590                       # average overall mshr miss latency
system.iocache.demand_avg_mshr_miss_latency::total 67069.143590                       # average overall mshr miss latency
system.iocache.overall_avg_mshr_miss_latency::.tsunami.ide 67069.143590                       # average overall mshr miss latency
system.iocache.overall_avg_mshr_miss_latency::total 67069.143590                       # average overall mshr miss latency
system.iocache.replacements                       179                       # number of replacements
system.iocache.ReadReq_misses::.tsunami.ide            3                       # number of ReadReq misses
system.iocache.ReadReq_misses::total                3                       # number of ReadReq misses
system.iocache.ReadReq_miss_latency::.tsunami.ide       349497                       # number of ReadReq miss cycles
system.iocache.ReadReq_miss_latency::total       349497                       # number of ReadReq miss cycles
system.iocache.ReadReq_accesses::.tsunami.ide            3                       # number of ReadReq accesses(hits+misses)
system.iocache.ReadReq_accesses::total              3                       # number of ReadReq accesses(hits+misses)
system.iocache.ReadReq_miss_rate::.tsunami.ide            1                       # miss rate for ReadReq accesses
system.iocache.ReadReq_miss_rate::total             1                       # miss rate for ReadReq accesses
system.iocache.ReadReq_avg_miss_latency::.tsunami.ide       116499                       # average ReadReq miss latency
system.iocache.ReadReq_avg_miss_latency::total       116499                       # average ReadReq miss latency
system.iocache.ReadReq_mshr_misses::.tsunami.ide            3                       # number of ReadReq MSHR misses
system.iocache.ReadReq_mshr_misses::total            3                       # number of ReadReq MSHR misses
system.iocache.ReadReq_mshr_miss_latency::.tsunami.ide       199497                       # number of ReadReq MSHR miss cycles
system.iocache.ReadReq_mshr_miss_latency::total       199497                       # number of ReadReq MSHR miss cycles
system.iocache.ReadReq_mshr_miss_rate::.tsunami.ide            1                       # mshr miss rate for ReadReq accesses
system.iocache.ReadReq_mshr_miss_rate::total            1                       # mshr miss rate for ReadReq accesses
system.iocache.ReadReq_avg_mshr_miss_latency::.tsunami.ide        66499                       # average ReadReq mshr miss latency
system.iocache.ReadReq_avg_mshr_miss_latency::total        66499                       # average ReadReq mshr miss latency
system.iocache.WriteLineReq_misses::.tsunami.ide          192                       # number of WriteLineReq misses
system.iocache.WriteLineReq_misses::total          192                       # number of WriteLineReq misses
system.iocache.WriteLineReq_miss_latency::.tsunami.ide     22489961                       # number of WriteLineReq miss cycles
system.iocache.WriteLineReq_miss_latency::total     22489961                       # number of WriteLineReq miss cycles
system.iocache.WriteLineReq_accesses::.tsunami.ide          192                       # number of WriteLineReq accesses(hits+misses)
system.iocache.WriteLineReq_accesses::total          192                       # number of WriteLineReq accesses(hits+misses)
system.iocache.WriteLineReq_miss_rate::.tsunami.ide            1                       # miss rate for WriteLineReq accesses
system.iocache.WriteLineReq_miss_rate::total            1                       # miss rate for WriteLineReq accesses
system.iocache.WriteLineReq_avg_miss_latency::.tsunami.ide 117135.213542                       # average WriteLineReq miss latency
system.iocache.WriteLineReq_avg_miss_latency::total 117135.213542                       # average WriteLineReq miss latency
system.iocache.WriteLineReq_mshr_misses::.tsunami.ide          192                       # number of WriteLineReq MSHR misses
system.iocache.WriteLineReq_mshr_misses::total          192                       # number of WriteLineReq MSHR misses
system.iocache.WriteLineReq_mshr_miss_latency::.tsunami.ide     12878986                       # number of WriteLineReq MSHR miss cycles
system.iocache.WriteLineReq_mshr_miss_latency::total     12878986                       # number of WriteLineReq MSHR miss cycles
system.iocache.WriteLineReq_mshr_miss_rate::.tsunami.ide            1                       # mshr miss rate for WriteLineReq accesses
system.iocache.WriteLineReq_mshr_miss_rate::total            1                       # mshr miss rate for WriteLineReq accesses
system.iocache.WriteLineReq_avg_mshr_miss_latency::.tsunami.ide 67078.052083                       # average WriteLineReq mshr miss latency
system.iocache.WriteLineReq_avg_mshr_miss_latency::total 67078.052083                       # average WriteLineReq mshr miss latency
system.iocache.tags.pwrStateResidencyTicks::UNDEFINED 2542165960500                       # Cumulative time (in ticks) in various power states
system.iocache.tags.tagsinuse                3.287567                       # Cycle average of tags in use
system.iocache.tags.total_refs                    179                       # Total number of references to valid blocks.
system.iocache.tags.sampled_refs                  179                       # Sample count of references to valid blocks.
system.iocache.tags.avg_refs                        1                       # Average number of references to valid blocks.
system.iocache.tags.warmup_cycle         2539667130000                       # Cycle when the warmup percentage was hit.
system.iocache.tags.occ_blocks::.tsunami.ide     3.287567                       # Average occupied blocks per requestor
system.iocache.tags.occ_percent::.tsunami.ide     0.205473                       # Average percentage of cache occupancy
system.iocache.tags.occ_percent::total       0.205473                       # Average percentage of cache occupancy
system.iocache.tags.occ_task_id_blocks::1023           16                       # Occupied blocks per task id
system.iocache.tags.age_task_id_blocks_1023::3           16                       # Occupied blocks per task id
system.iocache.tags.occ_task_id_percent::1023            1                       # Percentage of cache occupancy per task id
system.iocache.tags.tag_accesses                 1755                       # Number of tag accesses
system.iocache.tags.data_accesses                1755                       # Number of data accesses
system.membus.pwrStateResidencyTicks::UNDEFINED 2542165960500                       # Cumulative time (in ticks) in various power states
system.membus.trans_dist::ReadReq                 108                       # Transaction distribution
system.membus.trans_dist::ReadResp             130893                       # Transaction distribution
system.membus.trans_dist::WriteReq                100                       # Transaction distribution
system.membus.trans_dist::WriteResp               100                       # Transaction distribution
system.membus.trans_dist::WritebackDirty        34914                       # Transaction distribution
system.membus.trans_dist::WritebackClean        88872                       # Transaction distribution
system.membus.trans_dist::CleanEvict            34557                       # Transaction distribution
system.membus.trans_dist::UpgradeReq               16                       # Transaction distribution
system.membus.trans_dist::ReadExReq             28996                       # Transaction distribution
system.membus.trans_dist::ReadExResp            28996                       # Transaction distribution
system.membus.trans_dist::ReadCleanReq          89462                       # Transaction distribution
system.membus.trans_dist::ReadSharedReq         41326                       # Transaction distribution
system.membus.trans_dist::BadAddressError            3                       # Transaction distribution
system.membus.trans_dist::InvalidateReq           192                       # Transaction distribution
system.membus.pkt_count_system.iocache.mem_side::system.mem_ctrls.port          374                       # Packet count per connected master and slave (bytes)
system.membus.pkt_count_system.iocache.mem_side::total          374                       # Packet count per connected master and slave (bytes)
system.membus.pkt_count_system.cpu.icache.mem_side::system.mem_ctrls.port       267733                       # Packet count per connected master and slave (bytes)
system.membus.pkt_count_system.cpu.icache.mem_side::total       267733                       # Packet count per connected master and slave (bytes)
system.membus.pkt_count_system.cpu.dcache.mem_side::system.bridge.slave          416                       # Packet count per connected master and slave (bytes)
system.membus.pkt_count_system.cpu.dcache.mem_side::system.mem_ctrls.port       209940                       # Packet count per connected master and slave (bytes)
system.membus.pkt_count_system.cpu.dcache.mem_side::system.membus.badaddr_responder.pio            6                       # Packet count per connected master and slave (bytes)
system.membus.pkt_count_system.cpu.dcache.mem_side::total       210362                       # Packet count per connected master and slave (bytes)
system.membus.pkt_count::total                 478469                       # Packet count per connected master and slave (bytes)
system.membus.pkt_size_system.iocache.mem_side::system.mem_ctrls.port        11264                       # Cumulative packet size per connected master and slave (bytes)
system.membus.pkt_size_system.iocache.mem_side::total        11264                       # Cumulative packet size per connected master and slave (bytes)
system.membus.pkt_size_system.cpu.icache.mem_side::system.mem_ctrls.port     11409344                       # Cumulative packet size per connected master and slave (bytes)
system.membus.pkt_size_system.cpu.icache.mem_side::total     11409344                       # Cumulative packet size per connected master and slave (bytes)
system.membus.pkt_size_system.cpu.dcache.mem_side::system.bridge.slave          441                       # Cumulative packet size per connected master and slave (bytes)
system.membus.pkt_size_system.cpu.dcache.mem_side::system.mem_ctrls.port      6723456                       # Cumulative packet size per connected master and slave (bytes)
system.membus.pkt_size_system.cpu.dcache.mem_side::total      6723897                       # Cumulative packet size per connected master and slave (bytes)
system.membus.pkt_size::total                18144505                       # Cumulative packet size per connected master and slave (bytes)
system.membus.snoops                               66                       # Total snoops (count)
system.membus.snoopTraffic                       4224                       # Total snoop traffic (bytes)
system.membus.snoop_fanout::samples            160200                       # Request fanout histogram
system.membus.snoop_fanout::mean             0.002772                       # Request fanout histogram
system.membus.snoop_fanout::stdev            0.052573                       # Request fanout histogram
system.membus.snoop_fanout::underflows              0      0.00%      0.00% # Request fanout histogram
system.membus.snoop_fanout::0                  159756     99.72%     99.72% # Request fanout histogram
system.membus.snoop_fanout::1                     444      0.28%    100.00% # Request fanout histogram
system.membus.snoop_fanout::2                       0      0.00%    100.00% # Request fanout histogram
system.membus.snoop_fanout::3                       0      0.00%    100.00% # Request fanout histogram
system.membus.snoop_fanout::overflows               0      0.00%    100.00% # Request fanout histogram
system.membus.snoop_fanout::min_value               0                       # Request fanout histogram
system.membus.snoop_fanout::max_value               1                       # Request fanout histogram
system.membus.snoop_fanout::total              160200                       # Request fanout histogram
system.membus.reqLayer0.occupancy              355000                       # Layer occupancy (ticks)
system.membus.reqLayer0.utilization               0.0                       # Layer utilization (%)
system.membus.reqLayer1.occupancy           836900028                       # Layer occupancy (ticks)
system.membus.reqLayer1.utilization               6.9                       # Layer utilization (%)
system.membus.reqLayer2.occupancy                4500                       # Layer occupancy (ticks)
system.membus.reqLayer2.utilization               0.0                       # Layer utilization (%)
system.membus.respLayer1.occupancy              17997                       # Layer occupancy (ticks)
system.membus.respLayer1.utilization              0.0                       # Layer utilization (%)
system.membus.respLayer3.occupancy          378353250                       # Layer occupancy (ticks)
system.membus.respLayer3.utilization              3.1                       # Layer utilization (%)
system.membus.badaddr_responder.pwrStateResidencyTicks::UNDEFINED 2542165960500                       # Cumulative time (in ticks) in various power states
system.membus.respLayer2.occupancy          474372750                       # Layer occupancy (ticks)
system.membus.respLayer2.utilization              3.9                       # Layer utilization (%)
system.clk_domain.clock                          1000                       # Clock period in ticks
system.tsunami.fake_uart1.pwrStateResidencyTicks::UNDEFINED 2542165960500                       # Cumulative time (in ticks) in various power states
system.tsunami.fake_uart2.pwrStateResidencyTicks::UNDEFINED 2542165960500                       # Cumulative time (in ticks) in various power states
system.tsunami.fake_uart3.pwrStateResidencyTicks::UNDEFINED 2542165960500                       # Cumulative time (in ticks) in various power states
system.tsunami.fake_uart4.pwrStateResidencyTicks::UNDEFINED 2542165960500                       # Cumulative time (in ticks) in various power states
system.tsunami.fake_ppc.pwrStateResidencyTicks::UNDEFINED 2542165960500                       # Cumulative time (in ticks) in various power states
system.tsunami.cchip.pwrStateResidencyTicks::UNDEFINED 2542165960500                       # Cumulative time (in ticks) in various power states
system.tsunami.io.pwrStateResidencyTicks::UNDEFINED 2542165960500                       # Cumulative time (in ticks) in various power states
system.tsunami.pchip.pwrStateResidencyTicks::UNDEFINED 2542165960500                       # Cumulative time (in ticks) in various power states
system.tsunami.fake_ata1.pwrStateResidencyTicks::UNDEFINED 2542165960500                       # Cumulative time (in ticks) in various power states
system.tsunami.fake_ata0.pwrStateResidencyTicks::UNDEFINED 2542165960500                       # Cumulative time (in ticks) in various power states
system.tsunami.backdoor.pwrStateResidencyTicks::UNDEFINED 2542165960500                       # Cumulative time (in ticks) in various power states
system.tsunami.fake_pnp_read3.pwrStateResidencyTicks::UNDEFINED 2542165960500                       # Cumulative time (in ticks) in various power states
system.tsunami.fake_pnp_read2.pwrStateResidencyTicks::UNDEFINED 2542165960500                       # Cumulative time (in ticks) in various power states
system.tsunami.fake_pnp_read1.pwrStateResidencyTicks::UNDEFINED 2542165960500                       # Cumulative time (in ticks) in various power states
system.tsunami.fake_pnp_read0.pwrStateResidencyTicks::UNDEFINED 2542165960500                       # Cumulative time (in ticks) in various power states
system.tsunami.fake_pnp_read7.pwrStateResidencyTicks::UNDEFINED 2542165960500                       # Cumulative time (in ticks) in various power states
system.tsunami.fake_pnp_read6.pwrStateResidencyTicks::UNDEFINED 2542165960500                       # Cumulative time (in ticks) in various power states
system.tsunami.fake_pnp_read5.pwrStateResidencyTicks::UNDEFINED 2542165960500                       # Cumulative time (in ticks) in various power states
system.tsunami.fake_pnp_read4.pwrStateResidencyTicks::UNDEFINED 2542165960500                       # Cumulative time (in ticks) in various power states
system.tsunami.fake_pnp_write.pwrStateResidencyTicks::UNDEFINED 2542165960500                       # Cumulative time (in ticks) in various power states
system.tsunami.fb.pwrStateResidencyTicks::UNDEFINED 2542165960500                       # Cumulative time (in ticks) in various power states
system.tsunami.fake_pnp_addr.pwrStateResidencyTicks::UNDEFINED 2542165960500                       # Cumulative time (in ticks) in various power states
system.tsunami.fake_OROM.pwrStateResidencyTicks::UNDEFINED 2542165960500                       # Cumulative time (in ticks) in various power states
system.tsunami.uart.pwrStateResidencyTicks::UNDEFINED 2542165960500                       # Cumulative time (in ticks) in various power states
system.tsunami.fake_sm_chip.pwrStateResidencyTicks::UNDEFINED 2542165960500                       # Cumulative time (in ticks) in various power states
system.tsunami.ethernet.pwrStateResidencyTicks::UNDEFINED 2542165960500                       # Cumulative time (in ticks) in various power states
system.tsunami.ide.pwrStateResidencyTicks::UNDEFINED 2542165960500                       # Cumulative time (in ticks) in various power states
system.cpu_voltage_domain.voltage                   1                       # Voltage in Volts
system.mem_ctrls.pwrStateResidencyTicks::UNDEFINED 2542165960500                       # Cumulative time (in ticks) in various power states
system.mem_ctrls.bytes_read::.cpu.inst        5721536                       # Number of bytes read from this memory
system.mem_ctrls.bytes_read::.cpu.data        4500224                       # Number of bytes read from this memory
system.mem_ctrls.bytes_read::total           10221760                       # Number of bytes read from this memory
system.mem_ctrls.bytes_inst_read::.cpu.inst      5721536                       # Number of instructions bytes read from this memory
system.mem_ctrls.bytes_inst_read::total       5721536                       # Number of instructions bytes read from this memory
system.mem_ctrls.bytes_written::.writebacks      2234496                       # Number of bytes written to this memory
system.mem_ctrls.bytes_written::total         2234496                       # Number of bytes written to this memory
system.mem_ctrls.num_reads::.cpu.inst           89399                       # Number of read requests responded to by this memory
system.mem_ctrls.num_reads::.cpu.data           70316                       # Number of read requests responded to by this memory
system.mem_ctrls.num_reads::total              159715                       # Number of read requests responded to by this memory
system.mem_ctrls.num_writes::.writebacks        34914                       # Number of write requests responded to by this memory
system.mem_ctrls.num_writes::total              34914                       # Number of write requests responded to by this memory
system.mem_ctrls.bw_read::.cpu.inst         470671408                       # Total read bandwidth from this memory (bytes/s)
system.mem_ctrls.bw_read::.cpu.data         370202471                       # Total read bandwidth from this memory (bytes/s)
system.mem_ctrls.bw_read::total             840873879                       # Total read bandwidth from this memory (bytes/s)
system.mem_ctrls.bw_inst_read::.cpu.inst    470671408                       # Instruction read bandwidth from this memory (bytes/s)
system.mem_ctrls.bw_inst_read::total        470671408                       # Instruction read bandwidth from this memory (bytes/s)
system.mem_ctrls.bw_write::.writebacks      183816615                       # Write bandwidth from this memory (bytes/s)
system.mem_ctrls.bw_write::total            183816615                       # Write bandwidth from this memory (bytes/s)
system.mem_ctrls.bw_total::.writebacks      183816615                       # Total bandwidth to/from this memory (bytes/s)
system.mem_ctrls.bw_total::.cpu.inst        470671408                       # Total bandwidth to/from this memory (bytes/s)
system.mem_ctrls.bw_total::.cpu.data        370202471                       # Total bandwidth to/from this memory (bytes/s)
system.mem_ctrls.bw_total::total           1024690494                       # Total bandwidth to/from this memory (bytes/s)
system.mem_ctrls.avgPriority_.writebacks::samples    121566.00                       # Average QoS priority value for accepted requests
system.mem_ctrls.avgPriority_.cpu.inst::samples     79459.00                       # Average QoS priority value for accepted requests
system.mem_ctrls.avgPriority_.cpu.data::samples     69819.00                       # Average QoS priority value for accepted requests
system.mem_ctrls.priorityMinLatency      0.000000018750                       # per QoS priority minimum request to response latency (s)
system.mem_ctrls.priorityMaxLatency      0.000196083250                       # per QoS priority maximum request to response latency (s)
system.mem_ctrls.numReadWriteTurnArounds         7477                       # Number of turnarounds from READ to WRITE
system.mem_ctrls.numWriteReadTurnArounds         7477                       # Number of turnarounds from WRITE to READ
system.mem_ctrls.numStayReadState              414370                       # Number of times bus staying in READ state
system.mem_ctrls.numStayWriteState             114150                       # Number of times bus staying in WRITE state
system.mem_ctrls.readReqs                      159715                       # Number of read requests accepted
system.mem_ctrls.writeReqs                     123561                       # Number of write requests accepted
system.mem_ctrls.readBursts                    159715                       # Number of DRAM read bursts, including those serviced by the write queue
system.mem_ctrls.writeBursts                   123561                       # Number of DRAM write bursts, including those merged in the write queue
system.mem_ctrls.servicedByWrQ                  10437                       # Number of DRAM read bursts serviced by the write queue
system.mem_ctrls.mergedWrBursts                  1995                       # Number of DRAM write bursts merged with an existing one
system.mem_ctrls.neitherReadNorWriteReqs            0                       # Number of requests that are neither read nor write
system.mem_ctrls.perBankRdBursts::0              8953                       # Per bank write bursts
system.mem_ctrls.perBankRdBursts::1              6688                       # Per bank write bursts
system.mem_ctrls.perBankRdBursts::2             10370                       # Per bank write bursts
system.mem_ctrls.perBankRdBursts::3              7260                       # Per bank write bursts
system.mem_ctrls.perBankRdBursts::4              8688                       # Per bank write bursts
system.mem_ctrls.perBankRdBursts::5             10079                       # Per bank write bursts
system.mem_ctrls.perBankRdBursts::6              8832                       # Per bank write bursts
system.mem_ctrls.perBankRdBursts::7              8793                       # Per bank write bursts
system.mem_ctrls.perBankRdBursts::8             11979                       # Per bank write bursts
system.mem_ctrls.perBankRdBursts::9              9393                       # Per bank write bursts
system.mem_ctrls.perBankRdBursts::10            10827                       # Per bank write bursts
system.mem_ctrls.perBankRdBursts::11            12190                       # Per bank write bursts
system.mem_ctrls.perBankRdBursts::12             8887                       # Per bank write bursts
system.mem_ctrls.perBankRdBursts::13            13793                       # Per bank write bursts
system.mem_ctrls.perBankRdBursts::14             5604                       # Per bank write bursts
system.mem_ctrls.perBankRdBursts::15             6942                       # Per bank write bursts
system.mem_ctrls.perBankWrBursts::0              7296                       # Per bank write bursts
system.mem_ctrls.perBankWrBursts::1              4485                       # Per bank write bursts
system.mem_ctrls.perBankWrBursts::2              9031                       # Per bank write bursts
system.mem_ctrls.perBankWrBursts::3              8113                       # Per bank write bursts
system.mem_ctrls.perBankWrBursts::4              7907                       # Per bank write bursts
system.mem_ctrls.perBankWrBursts::5              9789                       # Per bank write bursts
system.mem_ctrls.perBankWrBursts::6              7599                       # Per bank write bursts
system.mem_ctrls.perBankWrBursts::7              6985                       # Per bank write bursts
system.mem_ctrls.perBankWrBursts::8             10857                       # Per bank write bursts
system.mem_ctrls.perBankWrBursts::9              8574                       # Per bank write bursts
system.mem_ctrls.perBankWrBursts::10             8161                       # Per bank write bursts
system.mem_ctrls.perBankWrBursts::11             8138                       # Per bank write bursts
system.mem_ctrls.perBankWrBursts::12             5501                       # Per bank write bursts
system.mem_ctrls.perBankWrBursts::13            10103                       # Per bank write bursts
system.mem_ctrls.perBankWrBursts::14             3211                       # Per bank write bursts
system.mem_ctrls.perBankWrBursts::15             5796                       # Per bank write bursts
system.mem_ctrls.avgRdQLen                       1.09                       # Average read queue length when enqueuing
system.mem_ctrls.avgWrQLen                      25.69                       # Average write queue length when enqueuing
system.mem_ctrls.totQLat                   2049530250                       # Total ticks spent queuing
system.mem_ctrls.totBusLat                  746390000                       # Total ticks spent in databus transfers
system.mem_ctrls.totMemAccLat              4848492750                       # Total ticks spent from burst creation until serviced by the DRAM
system.mem_ctrls.avgQLat                     13729.62                       # Average queueing delay per DRAM burst
system.mem_ctrls.avgBusLat                    5000.00                       # Average bus latency per DRAM burst
system.mem_ctrls.avgMemAccLat                32479.62                       # Average memory access latency per DRAM burst
system.mem_ctrls.numRdRetry                         0                       # Number of times read queue was full causing retry
system.mem_ctrls.numWrRetry                         0                       # Number of times write queue was full causing retry
system.mem_ctrls.readRowHits                   105604                       # Number of row buffer hits during reads
system.mem_ctrls.writeRowHits                   82198                       # Number of row buffer hits during writes
system.mem_ctrls.readRowHitRate                 70.74                       # Row buffer hit rate for reads
system.mem_ctrls.writeRowHitRate                67.62                       # Row buffer hit rate for writes
system.mem_ctrls.readPktSize::0                     0                       # Read request sizes (log2)
system.mem_ctrls.readPktSize::1                     0                       # Read request sizes (log2)
system.mem_ctrls.readPktSize::2                     0                       # Read request sizes (log2)
system.mem_ctrls.readPktSize::3                     0                       # Read request sizes (log2)
system.mem_ctrls.readPktSize::4                     0                       # Read request sizes (log2)
system.mem_ctrls.readPktSize::5                     0                       # Read request sizes (log2)
system.mem_ctrls.readPktSize::6                159715                       # Read request sizes (log2)
system.mem_ctrls.writePktSize::0                    0                       # Write request sizes (log2)
system.mem_ctrls.writePktSize::1                    0                       # Write request sizes (log2)
system.mem_ctrls.writePktSize::2                    0                       # Write request sizes (log2)
system.mem_ctrls.writePktSize::3                    0                       # Write request sizes (log2)
system.mem_ctrls.writePktSize::4                    0                       # Write request sizes (log2)
system.mem_ctrls.writePktSize::5                    0                       # Write request sizes (log2)
system.mem_ctrls.writePktSize::6               123561                       # Write request sizes (log2)
system.mem_ctrls.rdQLenPdf::0                  136831                       # What read queue length does an incoming req see
system.mem_ctrls.rdQLenPdf::1                   12130                       # What read queue length does an incoming req see
system.mem_ctrls.rdQLenPdf::2                     317                       # What read queue length does an incoming req see
system.mem_ctrls.rdQLenPdf::3                       0                       # What read queue length does an incoming req see
system.mem_ctrls.rdQLenPdf::4                       0                       # What read queue length does an incoming req see
system.mem_ctrls.rdQLenPdf::5                       0                       # What read queue length does an incoming req see
system.mem_ctrls.rdQLenPdf::6                       0                       # What read queue length does an incoming req see
system.mem_ctrls.rdQLenPdf::7                       0                       # What read queue length does an incoming req see
system.mem_ctrls.rdQLenPdf::8                       0                       # What read queue length does an incoming req see
system.mem_ctrls.rdQLenPdf::9                       0                       # What read queue length does an incoming req see
system.mem_ctrls.rdQLenPdf::10                      0                       # What read queue length does an incoming req see
system.mem_ctrls.rdQLenPdf::11                      0                       # What read queue length does an incoming req see
system.mem_ctrls.rdQLenPdf::12                      0                       # What read queue length does an incoming req see
system.mem_ctrls.rdQLenPdf::13                      0                       # What read queue length does an incoming req see
system.mem_ctrls.rdQLenPdf::14                      0                       # What read queue length does an incoming req see
system.mem_ctrls.rdQLenPdf::15                      0                       # What read queue length does an incoming req see
system.mem_ctrls.rdQLenPdf::16                      0                       # What read queue length does an incoming req see
system.mem_ctrls.rdQLenPdf::17                      0                       # What read queue length does an incoming req see
system.mem_ctrls.rdQLenPdf::18                      0                       # What read queue length does an incoming req see
system.mem_ctrls.rdQLenPdf::19                      0                       # What read queue length does an incoming req see
system.mem_ctrls.rdQLenPdf::20                      0                       # What read queue length does an incoming req see
system.mem_ctrls.rdQLenPdf::21                      0                       # What read queue length does an incoming req see
system.mem_ctrls.rdQLenPdf::22                      0                       # What read queue length does an incoming req see
system.mem_ctrls.rdQLenPdf::23                      0                       # What read queue length does an incoming req see
system.mem_ctrls.rdQLenPdf::24                      0                       # What read queue length does an incoming req see
system.mem_ctrls.rdQLenPdf::25                      0                       # What read queue length does an incoming req see
system.mem_ctrls.rdQLenPdf::26                      0                       # What read queue length does an incoming req see
system.mem_ctrls.rdQLenPdf::27                      0                       # What read queue length does an incoming req see
system.mem_ctrls.rdQLenPdf::28                      0                       # What read queue length does an incoming req see
system.mem_ctrls.rdQLenPdf::29                      0                       # What read queue length does an incoming req see
system.mem_ctrls.rdQLenPdf::30                      0                       # What read queue length does an incoming req see
system.mem_ctrls.rdQLenPdf::31                      0                       # What read queue length does an incoming req see
system.mem_ctrls.wrQLenPdf::0                       1                       # What write queue length does an incoming req see
system.mem_ctrls.wrQLenPdf::1                       1                       # What write queue length does an incoming req see
system.mem_ctrls.wrQLenPdf::2                       1                       # What write queue length does an incoming req see
system.mem_ctrls.wrQLenPdf::3                       1                       # What write queue length does an incoming req see
system.mem_ctrls.wrQLenPdf::4                       1                       # What write queue length does an incoming req see
system.mem_ctrls.wrQLenPdf::5                       1                       # What write queue length does an incoming req see
system.mem_ctrls.wrQLenPdf::6                       1                       # What write queue length does an incoming req see
system.mem_ctrls.wrQLenPdf::7                       1                       # What write queue length does an incoming req see
system.mem_ctrls.wrQLenPdf::8                       1                       # What write queue length does an incoming req see
system.mem_ctrls.wrQLenPdf::9                       1                       # What write queue length does an incoming req see
system.mem_ctrls.wrQLenPdf::10                      1                       # What write queue length does an incoming req see
system.mem_ctrls.wrQLenPdf::11                      1                       # What write queue length does an incoming req see
system.mem_ctrls.wrQLenPdf::12                      1                       # What write queue length does an incoming req see
system.mem_ctrls.wrQLenPdf::13                      1                       # What write queue length does an incoming req see
system.mem_ctrls.wrQLenPdf::14                      1                       # What write queue length does an incoming req see
system.mem_ctrls.wrQLenPdf::15                    703                       # What write queue length does an incoming req see
system.mem_ctrls.wrQLenPdf::16                    824                       # What write queue length does an incoming req see
system.mem_ctrls.wrQLenPdf::17                   6867                       # What write queue length does an incoming req see
system.mem_ctrls.wrQLenPdf::18                   7497                       # What write queue length does an incoming req see
system.mem_ctrls.wrQLenPdf::19                   7597                       # What write queue length does an incoming req see
system.mem_ctrls.wrQLenPdf::20                   7560                       # What write queue length does an incoming req see
system.mem_ctrls.wrQLenPdf::21                   7550                       # What write queue length does an incoming req see
system.mem_ctrls.wrQLenPdf::22                   7634                       # What write queue length does an incoming req see
system.mem_ctrls.wrQLenPdf::23                   7572                       # What write queue length does an incoming req see
system.mem_ctrls.wrQLenPdf::24                   7554                       # What write queue length does an incoming req see
system.mem_ctrls.wrQLenPdf::25                   7550                       # What write queue length does an incoming req see
system.mem_ctrls.wrQLenPdf::26                   7573                       # What write queue length does an incoming req see
system.mem_ctrls.wrQLenPdf::27                   7523                       # What write queue length does an incoming req see
system.mem_ctrls.wrQLenPdf::28                   7523                       # What write queue length does an incoming req see
system.mem_ctrls.wrQLenPdf::29                   7503                       # What write queue length does an incoming req see
system.mem_ctrls.wrQLenPdf::30                   7482                       # What write queue length does an incoming req see
system.mem_ctrls.wrQLenPdf::31                   7480                       # What write queue length does an incoming req see
system.mem_ctrls.wrQLenPdf::32                   7479                       # What write queue length does an incoming req see
system.mem_ctrls.wrQLenPdf::33                     16                       # What write queue length does an incoming req see
system.mem_ctrls.wrQLenPdf::34                      5                       # What write queue length does an incoming req see
system.mem_ctrls.wrQLenPdf::35                      3                       # What write queue length does an incoming req see
system.mem_ctrls.wrQLenPdf::36                      1                       # What write queue length does an incoming req see
system.mem_ctrls.wrQLenPdf::37                      1                       # What write queue length does an incoming req see
system.mem_ctrls.wrQLenPdf::38                      1                       # What write queue length does an incoming req see
system.mem_ctrls.wrQLenPdf::39                      1                       # What write queue length does an incoming req see
system.mem_ctrls.wrQLenPdf::40                      1                       # What write queue length does an incoming req see
system.mem_ctrls.wrQLenPdf::41                      1                       # What write queue length does an incoming req see
system.mem_ctrls.wrQLenPdf::42                      1                       # What write queue length does an incoming req see
system.mem_ctrls.wrQLenPdf::43                      1                       # What write queue length does an incoming req see
system.mem_ctrls.wrQLenPdf::44                      1                       # What write queue length does an incoming req see
system.mem_ctrls.wrQLenPdf::45                      2                       # What write queue length does an incoming req see
system.mem_ctrls.wrQLenPdf::46                      1                       # What write queue length does an incoming req see
system.mem_ctrls.wrQLenPdf::47                      1                       # What write queue length does an incoming req see
system.mem_ctrls.wrQLenPdf::48                      1                       # What write queue length does an incoming req see
system.mem_ctrls.wrQLenPdf::49                      1                       # What write queue length does an incoming req see
system.mem_ctrls.wrQLenPdf::50                      1                       # What write queue length does an incoming req see
system.mem_ctrls.wrQLenPdf::51                      1                       # What write queue length does an incoming req see
system.mem_ctrls.wrQLenPdf::52                      1                       # What write queue length does an incoming req see
system.mem_ctrls.wrQLenPdf::53                      1                       # What write queue length does an incoming req see
system.mem_ctrls.wrQLenPdf::54                      1                       # What write queue length does an incoming req see
system.mem_ctrls.wrQLenPdf::55                      2                       # What write queue length does an incoming req see
system.mem_ctrls.wrQLenPdf::56                      3                       # What write queue length does an incoming req see
system.mem_ctrls.wrQLenPdf::57                     11                       # What write queue length does an incoming req see
system.mem_ctrls.wrQLenPdf::58                     10                       # What write queue length does an incoming req see
system.mem_ctrls.wrQLenPdf::59                      1                       # What write queue length does an incoming req see
system.mem_ctrls.wrQLenPdf::60                      1                       # What write queue length does an incoming req see
system.mem_ctrls.wrQLenPdf::61                      1                       # What write queue length does an incoming req see
system.mem_ctrls.wrQLenPdf::62                      6                       # What write queue length does an incoming req see
system.mem_ctrls.wrQLenPdf::63                      1                       # What write queue length does an incoming req see
system.mem_ctrls.bytesPerActivate::samples        83012                       # Bytes accessed per row activation
system.mem_ctrls.bytesPerActivate::mean    208.785621                       # Bytes accessed per row activation
system.mem_ctrls.bytesPerActivate::gmean   140.431653                       # Bytes accessed per row activation
system.mem_ctrls.bytesPerActivate::stdev   224.791720                       # Bytes accessed per row activation
system.mem_ctrls.bytesPerActivate::0-127        35149     42.34%     42.34% # Bytes accessed per row activation
system.mem_ctrls.bytesPerActivate::128-255        24612     29.65%     71.99% # Bytes accessed per row activation
system.mem_ctrls.bytesPerActivate::256-383        10165     12.25%     84.24% # Bytes accessed per row activation
system.mem_ctrls.bytesPerActivate::384-511         4764      5.74%     89.97% # Bytes accessed per row activation
system.mem_ctrls.bytesPerActivate::512-639         2467      2.97%     92.95% # Bytes accessed per row activation
system.mem_ctrls.bytesPerActivate::640-767         1471      1.77%     94.72% # Bytes accessed per row activation
system.mem_ctrls.bytesPerActivate::768-895          976      1.18%     95.89% # Bytes accessed per row activation
system.mem_ctrls.bytesPerActivate::896-1023          609      0.73%     96.63% # Bytes accessed per row activation
system.mem_ctrls.bytesPerActivate::1024-1151         2799      3.37%    100.00% # Bytes accessed per row activation
system.mem_ctrls.bytesPerActivate::total        83012                       # Bytes accessed per row activation
system.mem_ctrls.rdPerTurnAround::samples         7477                       # Reads before turning the bus around for writes
system.mem_ctrls.rdPerTurnAround::mean      19.964558                       # Reads before turning the bus around for writes
system.mem_ctrls.rdPerTurnAround::gmean     18.373788                       # Reads before turning the bus around for writes
system.mem_ctrls.rdPerTurnAround::stdev     12.598046                       # Reads before turning the bus around for writes
system.mem_ctrls.rdPerTurnAround::0-15           1348     18.03%     18.03% # Reads before turning the bus around for writes
system.mem_ctrls.rdPerTurnAround::16-31          5657     75.66%     93.69% # Reads before turning the bus around for writes
system.mem_ctrls.rdPerTurnAround::32-47           284      3.80%     97.49% # Reads before turning the bus around for writes
system.mem_ctrls.rdPerTurnAround::48-63            92      1.23%     98.72% # Reads before turning the bus around for writes
system.mem_ctrls.rdPerTurnAround::64-79            32      0.43%     99.14% # Reads before turning the bus around for writes
system.mem_ctrls.rdPerTurnAround::80-95            18      0.24%     99.38% # Reads before turning the bus around for writes
system.mem_ctrls.rdPerTurnAround::96-111           15      0.20%     99.59% # Reads before turning the bus around for writes
system.mem_ctrls.rdPerTurnAround::112-127           13      0.17%     99.76% # Reads before turning the bus around for writes
system.mem_ctrls.rdPerTurnAround::128-143           11      0.15%     99.91% # Reads before turning the bus around for writes
system.mem_ctrls.rdPerTurnAround::144-159            2      0.03%     99.93% # Reads before turning the bus around for writes
system.mem_ctrls.rdPerTurnAround::160-175            2      0.03%     99.96% # Reads before turning the bus around for writes
system.mem_ctrls.rdPerTurnAround::176-191            1      0.01%     99.97% # Reads before turning the bus around for writes
system.mem_ctrls.rdPerTurnAround::208-223            1      0.01%     99.99% # Reads before turning the bus around for writes
system.mem_ctrls.rdPerTurnAround::416-431            1      0.01%    100.00% # Reads before turning the bus around for writes
system.mem_ctrls.rdPerTurnAround::total          7477                       # Reads before turning the bus around for writes
system.mem_ctrls.wrPerTurnAround::samples         7477                       # Writes before turning the bus around for reads
system.mem_ctrls.wrPerTurnAround::mean      16.255985                       # Writes before turning the bus around for reads
system.mem_ctrls.wrPerTurnAround::gmean     16.239559                       # Writes before turning the bus around for reads
system.mem_ctrls.wrPerTurnAround::stdev      0.764029                       # Writes before turning the bus around for reads
system.mem_ctrls.wrPerTurnAround::16             6632     88.70%     88.70% # Writes before turning the bus around for reads
system.mem_ctrls.wrPerTurnAround::17               94      1.26%     89.96% # Writes before turning the bus around for reads
system.mem_ctrls.wrPerTurnAround::18              509      6.81%     96.76% # Writes before turning the bus around for reads
system.mem_ctrls.wrPerTurnAround::19              172      2.30%     99.06% # Writes before turning the bus around for reads
system.mem_ctrls.wrPerTurnAround::20               65      0.87%     99.93% # Writes before turning the bus around for reads
system.mem_ctrls.wrPerTurnAround::21                4      0.05%     99.99% # Writes before turning the bus around for reads
system.mem_ctrls.wrPerTurnAround::22                1      0.01%    100.00% # Writes before turning the bus around for reads
system.mem_ctrls.wrPerTurnAround::total          7477                       # Writes before turning the bus around for reads
system.mem_ctrls.bytesReadDRAM                9553792                       # Total number of bytes read from DRAM
system.mem_ctrls.bytesReadWrQ                  667968                       # Total number of bytes read from write queue
system.mem_ctrls.bytesWritten                 7778944                       # Total number of bytes written to DRAM
system.mem_ctrls.bytesReadSys                10221760                       # Total read bytes from the system interface side
system.mem_ctrls.bytesWrittenSys              7907904                       # Total written bytes from the system interface side
system.mem_ctrls.avgRdBW                       785.92                       # Average DRAM read bandwidth in MiByte/s
system.mem_ctrls.avgWrBW                       639.92                       # Average achieved write bandwidth in MiByte/s
system.mem_ctrls.avgRdBWSys                    840.87                       # Average system read bandwidth in MiByte/s
system.mem_ctrls.avgWrBWSys                    650.53                       # Average system write bandwidth in MiByte/s
system.mem_ctrls.peakBW                      12800.00                       # Theoretical peak bandwidth in MiByte/s
system.mem_ctrls.busUtil                        11.14                       # Data bus utilization in percentage
system.mem_ctrls.busUtilRead                     6.14                       # Data bus utilization in percentage for reads
system.mem_ctrls.busUtilWrite                    5.00                       # Data bus utilization in percentage for writes
system.mem_ctrls.totGap                   12156110500                       # Total gap between requests
system.mem_ctrls.avgGap                      42912.60                       # Average gap between requests
system.mem_ctrls.masterReadBytes::.cpu.inst      5085376                       # Per-master bytes read from memory
system.mem_ctrls.masterReadBytes::.cpu.data      4468416                       # Per-master bytes read from memory
system.mem_ctrls.masterWriteBytes::.writebacks      7778944                       # Per-master bytes write to memory
system.mem_ctrls.masterReadRate::.cpu.inst 418338901.107018947601                       # Per-master bytes read from memory rate (Bytes/sec)
[...]
system.cpu.icache.tags.warmup_cycle                 0                       # Cycle when the warmup percentage was hit.
system.cpu.icache.tags.occ_blocks::.cpu.inst          512                       # Average occupied blocks per requestor
system.cpu.icache.tags.occ_percent::.cpu.inst            1                       # Average percentage of cache occupancy
system.cpu.icache.tags.occ_percent::total            1                       # Average percentage of cache occupancy
system.cpu.icache.tags.occ_task_id_blocks::1024          512                       # Occupied blocks per task id
system.cpu.icache.tags.age_task_id_blocks_1024::2           91                       # Occupied blocks per task id
system.cpu.icache.tags.age_task_id_blocks_1024::3          421                       # Occupied blocks per task id
system.cpu.icache.tags.occ_task_id_percent::1024            1                       # Percentage of cache occupancy per task id
system.cpu.icache.tags.tag_accesses         249970619                       # Number of tag accesses
system.cpu.icache.tags.data_accesses        249970619                       # Number of data accesses
system.cpu.dcache.pwrStateResidencyTicks::UNDEFINED 458622300000                       # Cumulative time (in ticks) in various power states
system.cpu.dcache.demand_hits::.cpu.data    110367767                       # number of demand (read+write) hits
system.cpu.dcache.demand_hits::total        110367767                       # number of demand (read+write) hits
system.cpu.dcache.overall_hits::.cpu.data    110367767                       # number of overall hits
system.cpu.dcache.overall_hits::total       110367767                       # number of overall hits
system.cpu.dcache.demand_misses::.cpu.data      3562962                       # number of demand (read+write) misses
system.cpu.dcache.demand_misses::total        3562962                       # number of demand (read+write) misses
system.cpu.dcache.overall_misses::.cpu.data      3562962                       # number of overall misses
system.cpu.dcache.overall_misses::total       3562962                       # number of overall misses
system.cpu.dcache.demand_miss_latency::.cpu.data 214425838500                       # number of demand (read+write) miss cycles
system.cpu.dcache.demand_miss_latency::total 214425838500                       # number of demand (read+write) miss cycles
system.cpu.dcache.overall_miss_latency::.cpu.data 214425838500                       # number of overall miss cycles
system.cpu.dcache.overall_miss_latency::total 214425838500                       # number of overall miss cycles
system.cpu.dcache.demand_accesses::.cpu.data    113930729                       # number of demand (read+write) accesses
system.cpu.dcache.demand_accesses::total    113930729                       # number of demand (read+write) accesses
system.cpu.dcache.overall_accesses::.cpu.data    113930729                       # number of overall (read+write) accesses
system.cpu.dcache.overall_accesses::total    113930729                       # number of overall (read+write) accesses
system.cpu.dcache.demand_miss_rate::.cpu.data     0.031273                       # miss rate for demand accesses
system.cpu.dcache.demand_miss_rate::total     0.031273                       # miss rate for demand accesses
system.cpu.dcache.overall_miss_rate::.cpu.data     0.031273                       # miss rate for overall accesses
system.cpu.dcache.overall_miss_rate::total     0.031273                       # miss rate for overall accesses
system.cpu.dcache.demand_avg_miss_latency::.cpu.data 60181.904410                       # average overall miss latency
system.cpu.dcache.demand_avg_miss_latency::total 60181.904410                       # average overall miss latency
system.cpu.dcache.overall_avg_miss_latency::.cpu.data 60181.904410                       # average overall miss latency
system.cpu.dcache.overall_avg_miss_latency::total 60181.904410                       # average overall miss latency
system.cpu.dcache.blocked_cycles::no_mshrs            0                       # number of cycles access was blocked
system.cpu.dcache.blocked_cycles::no_targets            0                       # number of cycles access was blocked
system.cpu.dcache.blocked::no_mshrs                 0                       # number of cycles access was blocked
system.cpu.dcache.blocked::no_targets               0                       # number of cycles access was blocked
system.cpu.dcache.avg_blocked_cycles::no_mshrs          nan                       # average number of cycles each access was blocked
system.cpu.dcache.avg_blocked_cycles::no_targets          nan                       # average number of cycles each access was blocked
system.cpu.dcache.writebacks::.writebacks      1526375                       # number of writebacks
system.cpu.dcache.writebacks::total           1526375                       # number of writebacks
system.cpu.dcache.demand_mshr_hits::.cpu.data       956475                       # number of demand (read+write) MSHR hits
system.cpu.dcache.demand_mshr_hits::total       956475                       # number of demand (read+write) MSHR hits
system.cpu.dcache.overall_mshr_hits::.cpu.data       956475                       # number of overall MSHR hits
system.cpu.dcache.overall_mshr_hits::total       956475                       # number of overall MSHR hits
system.cpu.dcache.demand_mshr_misses::.cpu.data      2606487                       # number of demand (read+write) MSHR misses
system.cpu.dcache.demand_mshr_misses::total      2606487                       # number of demand (read+write) MSHR misses
system.cpu.dcache.overall_mshr_misses::.cpu.data      2606487                       # number of overall MSHR misses
system.cpu.dcache.overall_mshr_misses::total      2606487                       # number of overall MSHR misses
system.cpu.dcache.overall_mshr_uncacheable_misses::.cpu.data         1066                       # number of overall MSHR uncacheable misses
system.cpu.dcache.overall_mshr_uncacheable_misses::total         1066                       # number of overall MSHR uncacheable misses
system.cpu.dcache.demand_mshr_miss_latency::.cpu.data 152106125500                       # number of demand (read+write) MSHR miss cycles
system.cpu.dcache.demand_mshr_miss_latency::total 152106125500                       # number of demand (read+write) MSHR miss cycles
system.cpu.dcache.overall_mshr_miss_latency::.cpu.data 152106125500                       # number of overall MSHR miss cycles
system.cpu.dcache.overall_mshr_miss_latency::total 152106125500                       # number of overall MSHR miss cycles
system.cpu.dcache.overall_mshr_uncacheable_latency::.cpu.data     42018500                       # number of overall MSHR uncacheable cycles
system.cpu.dcache.overall_mshr_uncacheable_latency::total     42018500                       # number of overall MSHR uncacheable cycles
system.cpu.dcache.demand_mshr_miss_rate::.cpu.data     0.022878                       # mshr miss rate for demand accesses
system.cpu.dcache.demand_mshr_miss_rate::total     0.022878                       # mshr miss rate for demand accesses
system.cpu.dcache.overall_mshr_miss_rate::.cpu.data     0.022878                       # mshr miss rate for overall accesses
system.cpu.dcache.overall_mshr_miss_rate::total     0.022878                       # mshr miss rate for overall accesses
system.cpu.dcache.demand_avg_mshr_miss_latency::.cpu.data 58356.755856                       # average overall mshr miss latency
system.cpu.dcache.demand_avg_mshr_miss_latency::total 58356.755856                       # average overall mshr miss latency
system.cpu.dcache.overall_avg_mshr_miss_latency::.cpu.data 58356.755856                       # average overall mshr miss latency
system.cpu.dcache.overall_avg_mshr_miss_latency::total 58356.755856                       # average overall mshr miss latency
system.cpu.dcache.overall_avg_mshr_uncacheable_latency::.cpu.data 39416.979362                       # average overall mshr uncacheable latency
system.cpu.dcache.overall_avg_mshr_uncacheable_latency::total 39416.979362                       # average overall mshr uncacheable latency
system.cpu.dcache.replacements                2609317                       # number of replacements
system.cpu.dcache.ReadReq_hits::.cpu.data     77236139                       # number of ReadReq hits
system.cpu.dcache.ReadReq_hits::total        77236139                       # number of ReadReq hits
system.cpu.dcache.ReadReq_misses::.cpu.data      1639404                       # number of ReadReq misses
system.cpu.dcache.ReadReq_misses::total       1639404                       # number of ReadReq misses
system.cpu.dcache.ReadReq_miss_latency::.cpu.data  95237199000                       # number of ReadReq miss cycles
system.cpu.dcache.ReadReq_miss_latency::total  95237199000                       # number of ReadReq miss cycles
system.cpu.dcache.ReadReq_accesses::.cpu.data     78875543                       # number of ReadReq accesses(hits+misses)
system.cpu.dcache.ReadReq_accesses::total     78875543                       # number of ReadReq accesses(hits+misses)
system.cpu.dcache.ReadReq_miss_rate::.cpu.data     0.020785                       # miss rate for ReadReq accesses
system.cpu.dcache.ReadReq_miss_rate::total     0.020785                       # miss rate for ReadReq accesses
system.cpu.dcache.ReadReq_avg_miss_latency::.cpu.data 58092.574497                       # average ReadReq miss latency
system.cpu.dcache.ReadReq_avg_miss_latency::total 58092.574497                       # average ReadReq miss latency
system.cpu.dcache.ReadReq_mshr_hits::.cpu.data        94892                       # number of ReadReq MSHR hits
system.cpu.dcache.ReadReq_mshr_hits::total        94892                       # number of ReadReq MSHR hits
system.cpu.dcache.ReadReq_mshr_misses::.cpu.data      1544512                       # number of ReadReq MSHR misses
system.cpu.dcache.ReadReq_mshr_misses::total      1544512                       # number of ReadReq MSHR misses
system.cpu.dcache.ReadReq_mshr_uncacheable::.cpu.data          245                       # number of ReadReq MSHR uncacheable
system.cpu.dcache.ReadReq_mshr_uncacheable::total          245                       # number of ReadReq MSHR uncacheable
system.cpu.dcache.ReadReq_mshr_miss_latency::.cpu.data  88167237500                       # number of ReadReq MSHR miss cycles
system.cpu.dcache.ReadReq_mshr_miss_latency::total  88167237500                       # number of ReadReq MSHR miss cycles
system.cpu.dcache.ReadReq_mshr_uncacheable_latency::.cpu.data     42018500                       # number of ReadReq MSHR uncacheable cycles
system.cpu.dcache.ReadReq_mshr_uncacheable_latency::total     42018500                       # number of ReadReq MSHR uncacheable cycles
system.cpu.dcache.ReadReq_mshr_miss_rate::.cpu.data     0.019582                       # mshr miss rate for ReadReq accesses
system.cpu.dcache.ReadReq_mshr_miss_rate::total     0.019582                       # mshr miss rate for ReadReq accesses
system.cpu.dcache.ReadReq_avg_mshr_miss_latency::.cpu.data 57084.203619                       # average ReadReq mshr miss latency
system.cpu.dcache.ReadReq_avg_mshr_miss_latency::total 57084.203619                       # average ReadReq mshr miss latency
system.cpu.dcache.ReadReq_avg_mshr_uncacheable_latency::.cpu.data 171504.081633                       # average ReadReq mshr uncacheable latency
system.cpu.dcache.ReadReq_avg_mshr_uncacheable_latency::total 171504.081633                       # average ReadReq mshr uncacheable latency
system.cpu.dcache.WriteReq_hits::.cpu.data     33131628                       # number of WriteReq hits
system.cpu.dcache.WriteReq_hits::total       33131628                       # number of WriteReq hits
system.cpu.dcache.WriteReq_misses::.cpu.data      1923558                       # number of WriteReq misses
system.cpu.dcache.WriteReq_misses::total      1923558                       # number of WriteReq misses
system.cpu.dcache.WriteReq_miss_latency::.cpu.data 119188639500                       # number of WriteReq miss cycles
system.cpu.dcache.WriteReq_miss_latency::total 119188639500                       # number of WriteReq miss cycles
system.cpu.dcache.WriteReq_accesses::.cpu.data     35055186                       # number of WriteReq accesses(hits+misses)
system.cpu.dcache.WriteReq_accesses::total     35055186                       # number of WriteReq accesses(hits+misses)
system.cpu.dcache.WriteReq_miss_rate::.cpu.data     0.054872                       # miss rate for WriteReq accesses
system.cpu.dcache.WriteReq_miss_rate::total     0.054872                       # miss rate for WriteReq accesses
system.cpu.dcache.WriteReq_avg_miss_latency::.cpu.data 61962.591978                       # average WriteReq miss latency
system.cpu.dcache.WriteReq_avg_miss_latency::total 61962.591978                       # average WriteReq miss latency
system.cpu.dcache.WriteReq_mshr_hits::.cpu.data       861583                       # number of WriteReq MSHR hits
system.cpu.dcache.WriteReq_mshr_hits::total       861583                       # number of WriteReq MSHR hits
system.cpu.dcache.WriteReq_mshr_misses::.cpu.data      1061975                       # number of WriteReq MSHR misses
system.cpu.dcache.WriteReq_mshr_misses::total      1061975                       # number of WriteReq MSHR misses
system.cpu.dcache.WriteReq_mshr_uncacheable::.cpu.data          821                       # number of WriteReq MSHR uncacheable
system.cpu.dcache.WriteReq_mshr_uncacheable::total          821                       # number of WriteReq MSHR uncacheable
system.cpu.dcache.WriteReq_mshr_miss_latency::.cpu.data  63938888000                       # number of WriteReq MSHR miss cycles
system.cpu.dcache.WriteReq_mshr_miss_latency::total  63938888000                       # number of WriteReq MSHR miss cycles
system.cpu.dcache.WriteReq_mshr_miss_rate::.cpu.data     0.030294                       # mshr miss rate for WriteReq accesses
system.cpu.dcache.WriteReq_mshr_miss_rate::total     0.030294                       # mshr miss rate for WriteReq accesses
system.cpu.dcache.WriteReq_avg_mshr_miss_latency::.cpu.data 60207.526543                       # average WriteReq mshr miss latency
system.cpu.dcache.WriteReq_avg_mshr_miss_latency::total 60207.526543                       # average WriteReq mshr miss latency
system.cpu.dcache.LoadLockedReq_hits::.cpu.data        72022                       # number of LoadLockedReq hits
system.cpu.dcache.LoadLockedReq_hits::total        72022                       # number of LoadLockedReq hits
system.cpu.dcache.LoadLockedReq_misses::.cpu.data         2831                       # number of LoadLockedReq misses
system.cpu.dcache.LoadLockedReq_misses::total         2831                       # number of LoadLockedReq misses
system.cpu.dcache.LoadLockedReq_miss_latency::.cpu.data    218111500                       # number of LoadLockedReq miss cycles
system.cpu.dcache.LoadLockedReq_miss_latency::total    218111500                       # number of LoadLockedReq miss cycles
system.cpu.dcache.LoadLockedReq_accesses::.cpu.data        74853                       # number of LoadLockedReq accesses(hits+misses)
system.cpu.dcache.LoadLockedReq_accesses::total        74853                       # number of LoadLockedReq accesses(hits+misses)
system.cpu.dcache.LoadLockedReq_miss_rate::.cpu.data     0.037821                       # miss rate for LoadLockedReq accesses
system.cpu.dcache.LoadLockedReq_miss_rate::total     0.037821                       # miss rate for LoadLockedReq accesses
system.cpu.dcache.LoadLockedReq_avg_miss_latency::.cpu.data 77043.977393                       # average LoadLockedReq miss latency
system.cpu.dcache.LoadLockedReq_avg_miss_latency::total 77043.977393                       # average LoadLockedReq miss latency
system.cpu.dcache.LoadLockedReq_mshr_hits::.cpu.data            1                       # number of LoadLockedReq MSHR hits
system.cpu.dcache.LoadLockedReq_mshr_hits::total            1                       # number of LoadLockedReq MSHR hits
system.cpu.dcache.LoadLockedReq_mshr_misses::.cpu.data         2830                       # number of LoadLockedReq MSHR misses
system.cpu.dcache.LoadLockedReq_mshr_misses::total         2830                       # number of LoadLockedReq MSHR misses
system.cpu.dcache.LoadLockedReq_mshr_miss_latency::.cpu.data    215224500                       # number of LoadLockedReq MSHR miss cycles
system.cpu.dcache.LoadLockedReq_mshr_miss_latency::total    215224500                       # number of LoadLockedReq MSHR miss cycles
system.cpu.dcache.LoadLockedReq_mshr_miss_rate::.cpu.data     0.037807                       # mshr miss rate for LoadLockedReq accesses
system.cpu.dcache.LoadLockedReq_mshr_miss_rate::total     0.037807                       # mshr miss rate for LoadLockedReq accesses
system.cpu.dcache.LoadLockedReq_avg_mshr_miss_latency::.cpu.data 76051.060071                       # average LoadLockedReq mshr miss latency
system.cpu.dcache.LoadLockedReq_avg_mshr_miss_latency::total 76051.060071                       # average LoadLockedReq mshr miss latency
system.cpu.dcache.StoreCondReq_hits::.cpu.data        74753                       # number of StoreCondReq hits
system.cpu.dcache.StoreCondReq_hits::total        74753                       # number of StoreCondReq hits
system.cpu.dcache.StoreCondReq_accesses::.cpu.data        74753                       # number of StoreCondReq accesses(hits+misses)
system.cpu.dcache.StoreCondReq_accesses::total        74753                       # number of StoreCondReq accesses(hits+misses)
system.cpu.dcache.tags.pwrStateResidencyTicks::UNDEFINED 458622300000                       # Cumulative time (in ticks) in various power states
system.cpu.dcache.tags.tagsinuse                 1024                       # Cycle average of tags in use
system.cpu.dcache.tags.total_refs           113378565                       # Total number of references to valid blocks.
system.cpu.dcache.tags.sampled_refs           2610341                       # Sample count of references to valid blocks.
system.cpu.dcache.tags.avg_refs             43.434388                       # Average number of references to valid blocks.
system.cpu.dcache.tags.warmup_cycle                 0                       # Cycle when the warmup percentage was hit.
system.cpu.dcache.tags.occ_blocks::.cpu.data         1024                       # Average occupied blocks per requestor
system.cpu.dcache.tags.occ_percent::.cpu.data            1                       # Average percentage of cache occupancy
system.cpu.dcache.tags.occ_percent::total            1                       # Average percentage of cache occupancy
system.cpu.dcache.tags.occ_task_id_blocks::1024         1024                       # Occupied blocks per task id
system.cpu.dcache.tags.age_task_id_blocks_1024::0           15                       # Occupied blocks per task id
system.cpu.dcache.tags.age_task_id_blocks_1024::1          110                       # Occupied blocks per task id
system.cpu.dcache.tags.age_task_id_blocks_1024::2          690                       # Occupied blocks per task id
system.cpu.dcache.tags.age_task_id_blocks_1024::3          209                       # Occupied blocks per task id
system.cpu.dcache.tags.occ_task_id_percent::1024            1                       # Percentage of cache occupancy per task id
system.cpu.dcache.tags.tag_accesses         230769987                       # Number of tag accesses
system.cpu.dcache.tags.data_accesses        230769987                       # Number of data accesses

---------- End Simulation Statistics   ----------
