
---------- Begin Simulation Statistics ----------
final_tick                               2541875716500                       # Number of ticks from beginning of simulation (restored from checkpoints and never reset)
host_inst_rate                                 224446                       # Simulator instruction rate (inst/s)
host_mem_usage                                 740740                       # Number of bytes of host memory used
host_op_rate                                   224444                       # Simulator op (including micro ops) rate (op/s)
host_seconds                                    18.70                       # Real time elapsed on the host
host_tick_rate                              634680200                       # Simulator tick rate (ticks/s)
sim_freq                                 1000000000000                       # Frequency of simulated ticks
sim_insts                                     4196169                       # Number of instructions simulated
sim_ops                                       4196169                       # Number of ops (including micro ops) simulated
sim_seconds                                  0.011866                       # Number of seconds simulated
sim_ticks                                 11865871500                       # Number of ticks simulated
system.cpu.branchPred.BTBCorrect                    0                       # Number of correct BTB predictions (this stat may not work properly.
system.cpu.branchPred.BTBHitPct             45.374953                       # BTB Hit Percentage
system.cpu.branchPred.BTBHits                  391133                       # Number of BTB hits
system.cpu.branchPred.BTBLookups               862002                       # Number of BTB lookups
system.cpu.branchPred.RASInCorrect               2394                       # Number of incorrect RAS predictions.
system.cpu.branchPred.condIncorrect             81522                       # Number of conditional branches incorrect
system.cpu.branchPred.condPredicted            806380                       # Number of conditional branches predicted
system.cpu.branchPred.indirectHits              53029                       # Number of indirect target hits.
system.cpu.branchPred.indirectLookups          279158                       # Number of indirect predictor lookups.
system.cpu.branchPred.indirectMisses           226129                       # Number of indirect misses.
system.cpu.branchPred.lookups                  980593                       # Number of BP lookups
system.cpu.branchPred.usedRAS                   64989                       # Number of times the RAS was used to get a target.
system.cpu.branchPredindirectMispredicted        26797                       # Number of mispredicted indirect branches.
system.cpu.committedInsts                     4196169                       # Number of instructions committed
system.cpu.committedOps                       4196169                       # Number of ops (including micro ops) committed
system.cpu.cpi                               5.652375                       # CPI: cycles per instruction
system.cpu.discardedOps                        191473                       # Number of ops (including micro ops) which were discarded before commit
system.cpu.dtb.data_accesses                   606742                       # DTB accesses
system.cpu.dtb.data_acv                           131                       # DTB access violations
system.cpu.dtb.data_hits                      1451777                       # DTB hits
system.cpu.dtb.data_misses                       7544                       # DTB misses
system.cpu.dtb.fetch_accesses                       0                       # ITB accesses
system.cpu.dtb.fetch_acv                            0                       # ITB acv
system.cpu.dtb.fetch_hits                           0                       # ITB hits
system.cpu.dtb.fetch_misses                         0                       # ITB misses
system.cpu.dtb.read_accesses                   405112                       # DTB read accesses
system.cpu.dtb.read_acv                            43                       # DTB read access violations
system.cpu.dtb.read_hits                       849174                       # DTB read hits
system.cpu.dtb.read_misses                       6689                       # DTB read misses
system.cpu.dtb.write_accesses                  201630                       # DTB write accesses
system.cpu.dtb.write_acv                           88                       # DTB write access violations
system.cpu.dtb.write_hits                      602603                       # DTB write hits
system.cpu.dtb.write_misses                       855                       # DTB write misses
system.cpu.fetch2.amo_instructions                  0                       # Number of memory atomic instructions successfully decoded
system.cpu.fetch2.fp_instructions               18054                       # Number of floating point instructions successfully decoded
system.cpu.fetch2.int_instructions            3389778                       # Number of integer instructions successfully decoded
system.cpu.fetch2.load_instructions           1033277                       # Number of memory load instructions successfully decoded
system.cpu.fetch2.store_instructions           662686                       # Number of memory store instructions successfully decoded
system.cpu.fetch2.vec_instructions                  0                       # Number of SIMD instructions successfully decoded
system.cpu.idleCycles                        16730314                       # Total number of cycles that the object has spent stopped
system.cpu.ipc                               0.176917                       # IPC: instructions per cycle
system.cpu.itb.data_accesses                        0                       # DTB accesses
system.cpu.itb.data_acv                             0                       # DTB access violations
system.cpu.itb.data_hits                            0                       # DTB hits
system.cpu.itb.data_misses                          0                       # DTB misses
system.cpu.itb.fetch_accesses                  978696                       # ITB accesses
system.cpu.itb.fetch_acv                          697                       # ITB acv
system.cpu.itb.fetch_hits                      971802                       # ITB hits
system.cpu.itb.fetch_misses                      6894                       # ITB misses
system.cpu.itb.read_accesses                        0                       # DTB read accesses
system.cpu.itb.read_acv                             0                       # DTB read access violations
system.cpu.itb.read_hits                            0                       # DTB read hits
system.cpu.itb.read_misses                          0                       # DTB read misses
system.cpu.itb.write_accesses                       0                       # DTB write accesses
system.cpu.itb.write_acv                            0                       # DTB write access violations
system.cpu.itb.write_hits                           0                       # DTB write hits
system.cpu.itb.write_misses                         0                       # DTB write misses
system.cpu.kern.callpal::swpctx                   574      9.43%      9.43% # number of callpals executed
system.cpu.kern.callpal::tbi                       25      0.41%      9.84% # number of callpals executed
system.cpu.kern.callpal::swpipl                  4224     69.39%     79.23% # number of callpals executed
system.cpu.kern.callpal::rdps                      48      0.79%     80.02% # number of callpals executed
system.cpu.kern.callpal::wrusp                      4      0.07%     80.09% # number of callpals executed
system.cpu.kern.callpal::rdusp                      3      0.05%     80.14% # number of callpals executed
system.cpu.kern.callpal::rti                      896     14.72%     94.86% # number of callpals executed
system.cpu.kern.callpal::callsys                  235      3.86%     98.72% # number of callpals executed
system.cpu.kern.callpal::imb                       78      1.28%    100.00% # number of callpals executed
system.cpu.kern.callpal::total                   6087                       # number of callpals executed
system.cpu.kern.inst.arm                            0                       # number of arm instructions executed
system.cpu.kern.inst.hwrei                      14430                       # number of hwrei instructions executed
system.cpu.kern.inst.quiesce                        9                       # number of quiesce instructions executed
system.cpu.kern.ipl_count::0                     2436     47.42%     47.42% # number of times we switched to this ipl
system.cpu.kern.ipl_count::21                       5      0.10%     47.52% # number of times we switched to this ipl
system.cpu.kern.ipl_count::22                      12      0.23%     47.75% # number of times we switched to this ipl
system.cpu.kern.ipl_count::31                    2684     52.25%    100.00% # number of times we switched to this ipl
system.cpu.kern.ipl_count::total                 5137                       # number of times we switched to this ipl
system.cpu.kern.ipl_good::0                      2423     49.83%     49.83% # number of times we switched to this ipl from a different ipl
system.cpu.kern.ipl_good::21                        5      0.10%     49.93% # number of times we switched to this ipl from a different ipl
system.cpu.kern.ipl_good::22                       12      0.25%     50.17% # number of times we switched to this ipl from a different ipl
system.cpu.kern.ipl_good::31                     2423     49.83%    100.00% # number of times we switched to this ipl from a different ipl
system.cpu.kern.ipl_good::total                  4863                       # number of times we switched to this ipl from a different ipl
system.cpu.kern.ipl_ticks::0              10948253000     92.23%     92.23% # number of cycles we spent at this ipl
system.cpu.kern.ipl_ticks::21                 8881500      0.07%     92.31% # number of cycles we spent at this ipl
system.cpu.kern.ipl_ticks::22                17588000      0.15%     92.46% # number of cycles we spent at this ipl
system.cpu.kern.ipl_ticks::31               895485500      7.54%    100.00% # number of cycles we spent at this ipl
system.cpu.kern.ipl_ticks::total          11870208000                       # number of cycles we spent at this ipl
system.cpu.kern.ipl_used::0                  0.994663                       # fraction of swpipl calls that actually changed the ipl
system.cpu.kern.ipl_used::21                        1                       # fraction of swpipl calls that actually changed the ipl
system.cpu.kern.ipl_used::22                        1                       # fraction of swpipl calls that actually changed the ipl
system.cpu.kern.ipl_used::31                 0.902757                       # fraction of swpipl calls that actually changed the ipl
system.cpu.kern.ipl_used::total              0.946661                       # fraction of swpipl calls that actually changed the ipl
system.cpu.kern.mode_good::kernel                 871                      
system.cpu.kern.mode_good::user                   871                      
system.cpu.kern.mode_good::idle                     0                      
system.cpu.kern.mode_switch::kernel              1470                       # number of protection mode switches
system.cpu.kern.mode_switch::user                 871                       # number of protection mode switches
system.cpu.kern.mode_switch::idle                   0                       # number of protection mode switches
system.cpu.kern.mode_switch_good::kernel     0.592517                       # fraction of useful protection mode switches
system.cpu.kern.mode_switch_good::user              1                       # fraction of useful protection mode switches
system.cpu.kern.mode_switch_good::idle            nan                       # fraction of useful protection mode switches
system.cpu.kern.mode_switch_good::total      0.744126                       # fraction of useful protection mode switches
system.cpu.kern.mode_ticks::kernel         7998739500     67.38%     67.38% # number of ticks spent at the given mode
system.cpu.kern.mode_ticks::user           3871468500     32.62%    100.00% # number of ticks spent at the given mode
system.cpu.kern.mode_ticks::idle                    0      0.00%    100.00% # number of ticks spent at the given mode
system.cpu.kern.swap_context                      574                       # number of times the context was actually changed
system.cpu.numCycles                         23718319                       # number of cpu cycles simulated
system.cpu.numFetchSuspends                         9                       # Number of times Execute suspended instruction fetching
system.cpu.numWorkItemsCompleted                    0                       # number of work items this cpu completed
system.cpu.numWorkItemsStarted                      0                       # number of work items this cpu started
system.cpu.op_class_0::No_OpClass               85418      2.04%      2.04% # Class of committed instruction
system.cpu.op_class_0::IntAlu                 2541546     60.57%     62.60% # Class of committed instruction
system.cpu.op_class_0::IntMult                   3675      0.09%     62.69% # Class of committed instruction
system.cpu.op_class_0::IntDiv                       0      0.00%     62.69% # Class of committed instruction
system.cpu.op_class_0::FloatAdd                  8286      0.20%     62.89% # Class of committed instruction
system.cpu.op_class_0::FloatCmp                     0      0.00%     62.89% # Class of committed instruction
system.cpu.op_class_0::FloatCvt                     0      0.00%     62.89% # Class of committed instruction
system.cpu.op_class_0::FloatMult                    0      0.00%     62.89% # Class of committed instruction
system.cpu.op_class_0::FloatMultAcc                 0      0.00%     62.89% # Class of committed instruction
system.cpu.op_class_0::FloatDiv                  1593      0.04%     62.93% # Class of committed instruction
system.cpu.op_class_0::FloatMisc                    0      0.00%     62.93% # Class of committed instruction
system.cpu.op_class_0::FloatSqrt                    0      0.00%     62.93% # Class of committed instruction
system.cpu.op_class_0::SimdAdd                      0      0.00%     62.93% # Class of committed instruction
system.cpu.op_class_0::SimdAddAcc                   0      0.00%     62.93% # Class of committed instruction
system.cpu.op_class_0::SimdAlu                      0      0.00%     62.93% # Class of committed instruction
system.cpu.op_class_0::SimdCmp                      0      0.00%     62.93% # Class of committed instruction
system.cpu.op_class_0::SimdCvt                      0      0.00%     62.93% # Class of committed instruction
system.cpu.op_class_0::SimdMisc                     0      0.00%     62.93% # Class of committed instruction
system.cpu.op_class_0::SimdMult                     0      0.00%     62.93% # Class of committed instruction
system.cpu.op_class_0::SimdMultAcc                  0      0.00%     62.93% # Class of committed instruction
system.cpu.op_class_0::SimdShift                    0      0.00%     62.93% # Class of committed instruction
system.cpu.op_class_0::SimdShiftAcc                 0      0.00%     62.93% # Class of committed instruction
system.cpu.op_class_0::SimdDiv                      0      0.00%     62.93% # Class of committed instruction
system.cpu.op_class_0::SimdSqrt                     0      0.00%     62.93% # Class of committed instruction
system.cpu.op_class_0::SimdFloatAdd                 0      0.00%     62.93% # Class of committed instruction
system.cpu.op_class_0::SimdFloatAlu                 0      0.00%     62.93% # Class of committed instruction
system.cpu.op_class_0::SimdFloatCmp                 0      0.00%     62.93% # Class of committed instruction
system.cpu.op_class_0::SimdFloatCvt                 0      0.00%     62.93% # Class of committed instruction
system.cpu.op_class_0::SimdFloatDiv                 0      0.00%     62.93% # Class of committed instruction
system.cpu.op_class_0::SimdFloatMisc                0      0.00%     62.93% # Class of committed instruction
system.cpu.op_class_0::SimdFloatMult                0      0.00%     62.93% # Class of committed instruction
system.cpu.op_class_0::SimdFloatMultAcc             0      0.00%     62.93% # Class of committed instruction
system.cpu.op_class_0::SimdFloatSqrt                0      0.00%     62.93% # Class of committed instruction
system.cpu.op_class_0::SimdReduceAdd                0      0.00%     62.93% # Class of committed instruction
system.cpu.op_class_0::SimdReduceAlu                0      0.00%     62.93% # Class of committed instruction
system.cpu.op_class_0::SimdReduceCmp                0      0.00%     62.93% # Class of committed instruction
system.cpu.op_class_0::SimdFloatReduceAdd            0      0.00%     62.93% # Class of committed instruction
system.cpu.op_class_0::SimdFloatReduceCmp            0      0.00%     62.93% # Class of committed instruction
system.cpu.op_class_0::SimdAes                      0      0.00%     62.93% # Class of committed instruction
system.cpu.op_class_0::SimdAesMix                   0      0.00%     62.93% # Class of committed instruction
system.cpu.op_class_0::SimdSha1Hash                 0      0.00%     62.93% # Class of committed instruction
system.cpu.op_class_0::SimdSha1Hash2                0      0.00%     62.93% # Class of committed instruction
system.cpu.op_class_0::SimdSha256Hash               0      0.00%     62.93% # Class of committed instruction
system.cpu.op_class_0::SimdSha256Hash2              0      0.00%     62.93% # Class of committed instruction
system.cpu.op_class_0::SimdShaSigma2                0      0.00%     62.93% # Class of committed instruction
system.cpu.op_class_0::SimdShaSigma3                0      0.00%     62.93% # Class of committed instruction
system.cpu.op_class_0::SimdPredAlu                  0      0.00%     62.93% # Class of committed instruction
system.cpu.op_class_0::MemRead                 839360     20.00%     82.93% # Class of committed instruction
system.cpu.op_class_0::MemWrite                592640     14.12%     97.05% # Class of committed instruction
system.cpu.op_class_0::FloatMemRead              9988      0.24%     97.29% # Class of committed instruction
system.cpu.op_class_0::FloatMemWrite             8788      0.21%     97.50% # Class of committed instruction
system.cpu.op_class_0::IprAccess               104875      2.50%    100.00% # Class of committed instruction
system.cpu.op_class_0::InstPrefetch                 0      0.00%    100.00% # Class of committed instruction
system.cpu.op_class_0::total                  4196169                       # Class of committed instruction
system.cpu.quiesceCycles                        13424                       # Total number of cycles that CPU has spent quiesced or waiting for an interrupt
system.cpu.tickCycles                         6988005                       # Number of cycles that the object actually ticked
system.disk0.dma_read_bytes                         0                       # Number of bytes transfered via DMA reads (not PRD).
system.disk0.dma_read_full_pages                    0                       # Number of full page size DMA reads (not PRD).
system.disk0.dma_read_txs                           0                       # Number of DMA read transactions (not PRD).
system.disk0.dma_write_bytes                    12288                       # Number of bytes transfered via DMA writes.
system.disk0.dma_write_full_pages                   0                       # Number of full page size DMA writes.
system.disk0.dma_write_txs                          3                       # Number of DMA write transactions.
system.disk2.dma_read_bytes                         0                       # Number of bytes transfered via DMA reads (not PRD).
system.disk2.dma_read_full_pages                    0                       # Number of full page size DMA reads (not PRD).
system.disk2.dma_read_txs                           0                       # Number of DMA read transactions (not PRD).
system.disk2.dma_write_bytes                        0                       # Number of bytes transfered via DMA writes.
system.disk2.dma_write_full_pages                   0                       # Number of full page size DMA writes.
system.disk2.dma_write_txs                          0                       # Number of DMA write transactions.
system.membus.snoop_filter.hit_multi_requests          441                       # Number of requests hitting in the snoop filter with multiple (>1) holders of the requested data.
system.membus.snoop_filter.hit_multi_snoops            0                       # Number of snoops hitting in the snoop filter with multiple (>1) holders of the requested data.
system.membus.snoop_filter.hit_single_requests       155569                       # Number of requests hitting in the snoop filter with a single holder of the requested data.
system.membus.snoop_filter.hit_single_snoops            0                       # Number of snoops hitting in the snoop filter with a single holder of the requested data.
system.membus.snoop_filter.tot_requests        312743                       # Total number of requests made to the snoop filter.
system.membus.snoop_filter.tot_snoops               0                       # Total number of snoops made to the snoop filter.
system.tsunami.ethernet.coalescedRxDesc           nan                       # average number of RxDesc's coalesced into each post
system.tsunami.ethernet.coalescedRxIdle           nan                       # average number of RxIdle's coalesced into each post
system.tsunami.ethernet.coalescedRxOk             nan                       # average number of RxOk's coalesced into each post
system.tsunami.ethernet.coalescedRxOrn            nan                       # average number of RxOrn's coalesced into each post
system.tsunami.ethernet.coalescedSwi              nan                       # average number of Swi's coalesced into each post
system.tsunami.ethernet.coalescedTotal            nan                       # average number of interrupts coalesced into each post
system.tsunami.ethernet.coalescedTxDesc           nan                       # average number of TxDesc's coalesced into each post
system.tsunami.ethernet.coalescedTxIdle           nan                       # average number of TxIdle's coalesced into each post
system.tsunami.ethernet.coalescedTxOk             nan                       # average number of TxOk's coalesced into each post
system.tsunami.ethernet.descDMAReads                0                       # Number of descriptors the device read w/ DMA
system.tsunami.ethernet.descDMAWrites               0                       # Number of descriptors the device wrote w/ DMA
system.tsunami.ethernet.descDmaReadBytes            0                       # number of descriptor bytes read w/ DMA
system.tsunami.ethernet.descDmaWriteBytes            0                       # number of descriptor bytes write w/ DMA
system.tsunami.ethernet.droppedPackets              0                       # number of packets dropped
system.tsunami.ethernet.postedInterrupts            0                       # number of posts to CPU
system.tsunami.ethernet.postedRxDesc                0                       # number of RxDesc interrupts posted to CPU
system.tsunami.ethernet.postedRxIdle                0                       # number of rxIdle interrupts posted to CPU
system.tsunami.ethernet.postedRxOk                  0                       # number of RxOk interrupts posted to CPU
system.tsunami.ethernet.postedRxOrn                 0                       # number of RxOrn posted to CPU
system.tsunami.ethernet.postedSwi                   0                       # number of software interrupts posted to CPU
system.tsunami.ethernet.postedTxDesc                0                       # number of TxDesc interrupts posted to CPU
system.tsunami.ethernet.postedTxIdle                0                       # number of TxIdle interrupts posted to CPU
system.tsunami.ethernet.postedTxOk                  0                       # number of TxOk interrupts posted to CPU
system.tsunami.ethernet.totalRxDesc                 0                       # total number of RxDesc written to ISR
system.tsunami.ethernet.totalRxIdle                 0                       # total number of RxIdle written to ISR
system.tsunami.ethernet.totalRxOk                   0                       # total number of RxOk written to ISR
system.tsunami.ethernet.totalRxOrn                  0                       # total number of RxOrn written to ISR
system.tsunami.ethernet.totalSwi                    0                       # total number of Swi written to ISR
system.tsunami.ethernet.totalTxDesc                 0                       # total number of TxDesc written to ISR
system.tsunami.ethernet.totalTxIdle                 0                       # total number of TxIdle written to ISR
system.tsunami.ethernet.totalTxOk                   0                       # total number of TxOk written to ISR
system.bridge.pwrStateResidencyTicks::UNDEFINED 2541875716500                       # Cumulative time (in ticks) in various power states
system.voltage_domain.voltage                       1                       # Voltage in Volts
system.iocache.pwrStateResidencyTicks::UNDEFINED 2541875716500                       # Cumulative time (in ticks) in various power states
system.iocache.demand_misses::.tsunami.ide          195                       # number of demand (read+write) misses
system.iocache.demand_misses::total               195                       # number of demand (read+write) misses
system.iocache.overall_misses::.tsunami.ide          195                       # number of overall misses
system.iocache.overall_misses::total              195                       # number of overall misses
system.iocache.demand_miss_latency::.tsunami.ide     22787453                       # number of demand (read+write) miss cycles
system.iocache.demand_miss_latency::total     22787453                       # number of demand (read+write) miss cycles
system.iocache.overall_miss_latency::.tsunami.ide     22787453                       # number of overall miss cycles
system.iocache.overall_miss_latency::total     22787453                       # number of overall miss cycles
system.iocache.demand_accesses::.tsunami.ide          195                       # number of demand (read+write) accesses
system.iocache.demand_accesses::total             195                       # number of demand (read+write) accesses
system.iocache.overall_accesses::.tsunami.ide          195                       # number of overall (read+write) accesses
system.iocache.overall_accesses::total            195                       # number of overall (read+write) accesses
system.iocache.demand_miss_rate::.tsunami.ide            1                       # miss rate for demand accesses
system.iocache.demand_miss_rate::total              1                       # miss rate for demand accesses
system.iocache.overall_miss_rate::.tsunami.ide            1                       # miss rate for overall accesses
system.iocache.overall_miss_rate::total             1                       # miss rate for overall accesses
system.iocache.demand_avg_miss_latency::.tsunami.ide 116858.733333                       # average overall miss latency
system.iocache.demand_avg_miss_latency::total 116858.733333                       # average overall miss latency
system.iocache.overall_avg_miss_latency::.tsunami.ide 116858.733333                       # average overall miss latency
system.iocache.overall_avg_miss_latency::total 116858.733333                       # average overall miss latency
system.iocache.blocked_cycles::no_mshrs             0                       # number of cycles access was blocked
system.iocache.blocked_cycles::no_targets            0                       # number of cycles access was blocked
system.iocache.blocked::no_mshrs                    0                       # number of cycles access was blocked
system.iocache.blocked::no_targets                  0                       # number of cycles access was blocked
system.iocache.avg_blocked_cycles::no_mshrs          nan                       # average number of cycles each access was blocked
system.iocache.avg_blocked_cycles::no_targets          nan                       # average number of cycles each access was blocked
system.iocache.writebacks::.writebacks            176                       # number of writebacks
system.iocache.writebacks::total                  176                       # number of writebacks
system.iocache.demand_mshr_misses::.tsunami.ide          195                       # number of demand (read+write) MSHR misses
system.iocache.demand_mshr_misses::total          195                       # number of demand (read+write) MSHR misses
system.iocache.overall_mshr_misses::.tsunami.ide          195                       # number of overall MSHR misses
system.iocache.overall_mshr_misses::total          195                       # number of overall MSHR misses
system.iocache.demand_mshr_miss_latency::.tsunami.ide     13024487                       # number of demand (read+write) MSHR miss cycles
system.iocache.demand_mshr_miss_latency::total     13024487                       # number of demand (read+write) MSHR miss cycles
system.iocache.overall_mshr_miss_latency::.tsunami.ide     13024487                       # number of overall MSHR miss cycles
system.iocache.overall_mshr_miss_latency::total     13024487                       # number of overall MSHR miss cycles
system.iocache.demand_mshr_miss_rate::.tsunami.ide            1                       # mshr miss rate for demand accesses
system.iocache.demand_mshr_miss_rate::total            1                       # mshr miss rate for demand accesses
system.iocache.overall_mshr_miss_rate::.tsunami.ide            1                       # mshr miss rate for overall accesses
system.iocache.overall_mshr_miss_rate::total            1                       # mshr miss rate for overall accesses
system.iocache.demand_avg_mshr_miss_latency::.tsunami.ide 66792.241026                       # average overall mshr miss latency
system.iocache.demand_avg_mshr_miss_latency::total 66792.241026                       # average overall mshr miss latency
system.iocache.overall_avg_mshr_miss_latency::.tsunami.ide 66792.241026                       # average overall mshr miss latency
system.iocache.overall_avg_mshr_miss_latency::total 66792.241026                       # average overall mshr miss latency
system.iocache.replacements                       179                       # number of replacements
system.iocache.ReadReq_misses::.tsunami.ide            3                       # number of ReadReq misses
system.iocache.ReadReq_misses::total                3                       # number of ReadReq misses
system.iocache.ReadReq_miss_latency::.tsunami.ide       349497                       # number of ReadReq miss cycles
system.iocache.ReadReq_miss_latency::total       349497                       # number of ReadReq miss cycles
system.iocache.ReadReq_accesses::.tsunami.ide            3                       # number of ReadReq accesses(hits+misses)
system.iocache.ReadReq_accesses::total              3                       # number of ReadReq accesses(hits+misses)
system.iocache.ReadReq_miss_rate::.tsunami.ide            1                       # miss rate for ReadReq accesses
system.iocache.ReadReq_miss_rate::total             1                       # miss rate for ReadReq accesses
system.iocache.ReadReq_avg_miss_latency::.tsunami.ide       116499                       # average ReadReq miss latency
system.iocache.ReadReq_avg_miss_latency::total       116499                       # average ReadReq miss latency
system.iocache.ReadReq_mshr_misses::.tsunami.ide            3                       # number of ReadReq MSHR misses
system.iocache.ReadReq_mshr_misses::total            3                       # number of ReadReq MSHR misses
system.iocache.ReadReq_mshr_miss_latency::.tsunami.ide       199497                       # number of ReadReq MSHR miss cycles
system.iocache.ReadReq_mshr_miss_latency::total       199497                       # number of ReadReq MSHR miss cycles
system.iocache.ReadReq_mshr_miss_rate::.tsunami.ide            1                       # mshr miss rate for ReadReq accesses
system.iocache.ReadReq_mshr_miss_rate::total            1                       # mshr miss rate for ReadReq accesses
system.iocache.ReadReq_avg_mshr_miss_latency::.tsunami.ide        66499                       # average ReadReq mshr miss latency
system.iocache.ReadReq_avg_mshr_miss_latency::total        66499                       # average ReadReq mshr miss latency
system.iocache.WriteLineReq_misses::.tsunami.ide          192                       # number of WriteLineReq misses
system.iocache.WriteLineReq_misses::total          192                       # number of WriteLineReq misses
system.iocache.WriteLineReq_miss_latency::.tsunami.ide     22437956                       # number of WriteLineReq miss cycles
system.iocache.WriteLineReq_miss_latency::total     22437956                       # number of WriteLineReq miss cycles
system.iocache.WriteLineReq_accesses::.tsunami.ide          192                       # number of WriteLineReq accesses(hits+misses)
system.iocache.WriteLineReq_accesses::total          192                       # number of WriteLineReq accesses(hits+misses)
system.iocache.WriteLineReq_miss_rate::.tsunami.ide            1                       # miss rate for WriteLineReq accesses
system.iocache.WriteLineReq_miss_rate::total            1                       # miss rate for WriteLineReq accesses
system.iocache.WriteLineReq_avg_miss_latency::.tsunami.ide 116864.354167                       # average WriteLineReq miss latency
system.iocache.WriteLineReq_avg_miss_latency::total 116864.354167                       # average WriteLineReq miss latency
system.iocache.WriteLineReq_mshr_misses::.tsunami.ide          192                       # number of WriteLineReq MSHR misses
system.iocache.WriteLineReq_mshr_misses::total          192                       # number of WriteLineReq MSHR misses
system.iocache.WriteLineReq_mshr_miss_latency::.tsunami.ide     12824990                       # number of WriteLineReq MSHR miss cycles
system.iocache.WriteLineReq_mshr_miss_latency::total     12824990                       # number of WriteLineReq MSHR miss cycles
system.iocache.WriteLineReq_mshr_miss_rate::.tsunami.ide            1                       # mshr miss rate for WriteLineReq accesses
system.iocache.WriteLineReq_mshr_miss_rate::total            1                       # mshr miss rate for WriteLineReq accesses
system.iocache.WriteLineReq_avg_mshr_miss_latency::.tsunami.ide 66796.822917                       # average WriteLineReq mshr miss latency
system.iocache.WriteLineReq_avg_mshr_miss_latency::total 66796.822917                       # average WriteLineReq mshr miss latency
system.iocache.tags.pwrStateResidencyTicks::UNDEFINED 2541875716500                       # Cumulative time (in ticks) in various power states
system.iocache.tags.tagsinuse                3.259650                       # Cycle average of tags in use
system.iocache.tags.total_refs                    179                       # Total number of references to valid blocks.
system.iocache.tags.sampled_refs                  179                       # Sample count of references to valid blocks.
system.iocache.tags.avg_refs                        1                       # Average number of references to valid blocks.
system.iocache.tags.warmup_cycle         2539457227000                       # Cycle when the warmup percentage was hit.
system.iocache.tags.occ_blocks::.tsunami.ide     3.259650                       # Average occupied blocks per requestor
system.iocache.tags.occ_percent::.tsunami.ide     0.203728                       # Average percentage of cache occupancy
system.iocache.tags.occ_percent::total       0.203728                       # Average percentage of cache occupancy
system.iocache.tags.occ_task_id_blocks::1023           16                       # Occupied blocks per task id
system.iocache.tags.age_task_id_blocks_1023::3           16                       # Occupied blocks per task id
system.iocache.tags.occ_task_id_percent::1023            1                       # Percentage of cache occupancy per task id
system.iocache.tags.tag_accesses                 1755                       # Number of tag accesses
system.iocache.tags.data_accesses                1755                       # Number of data accesses
system.membus.pwrStateResidencyTicks::UNDEFINED 2541875716500                       # Cumulative time (in ticks) in various power states
system.membus.trans_dist::ReadReq                 108                       # Transaction distribution
system.membus.trans_dist::ReadResp             128093                       # Transaction distribution
system.membus.trans_dist::WriteReq                 99                       # Transaction distribution
system.membus.trans_dist::WriteResp                99                       # Transaction distribution
system.membus.trans_dist::WritebackDirty        34847                       # Transaction distribution
system.membus.trans_dist::WritebackClean        86535                       # Transaction distribution
system.membus.trans_dist::CleanEvict            34165                       # Transaction distribution
system.membus.trans_dist::UpgradeReq               16                       # Transaction distribution
system.membus.trans_dist::ReadExReq             29000                       # Transaction distribution
system.membus.trans_dist::ReadExResp            29000                       # Transaction distribution
system.membus.trans_dist::ReadCleanReq          87125                       # Transaction distribution
system.membus.trans_dist::ReadSharedReq         40863                       # Transaction distribution
system.membus.trans_dist::BadAddressError            3                       # Transaction distribution
system.membus.trans_dist::InvalidateReq           192                       # Transaction distribution
system.membus.pkt_count_system.iocache.mem_side::system.mem_ctrls.port          374                       # Packet count per connected master and slave (bytes)
system.membus.pkt_count_system.iocache.mem_side::total          374                       # Packet count per connected master and slave (bytes)
system.membus.pkt_count_system.cpu.icache.mem_side::system.mem_ctrls.port       260722                       # Packet count per connected master and slave (bytes)
system.membus.pkt_count_system.cpu.icache.mem_side::total       260722                       # Packet count per connected master and slave (bytes)
system.membus.pkt_count_system.cpu.dcache.mem_side::system.bridge.slave          414                       # Packet count per connected master and slave (bytes)
system.membus.pkt_count_system.cpu.dcache.mem_side::system.mem_ctrls.port       208563                       # Packet count per connected master and slave (bytes)
system.membus.pkt_count_system.cpu.dcache.mem_side::system.membus.badaddr_responder.pio            6                       # Packet count per connected master and slave (bytes)
system.membus.pkt_count_system.cpu.dcache.mem_side::total       208983                       # Packet count per connected master and slave (bytes)
system.membus.pkt_count::total                 470079                       # Packet count per connected master and slave (bytes)
system.membus.pkt_size_system.iocache.mem_side::system.mem_ctrls.port        11264                       # Cumulative packet size per connected master and slave (bytes)
system.membus.pkt_size_system.iocache.mem_side::total        11264                       # Cumulative packet size per connected master and slave (bytes)
system.membus.pkt_size_system.cpu.icache.mem_side::system.mem_ctrls.port     11110208                       # Cumulative packet size per connected master and slave (bytes)
system.membus.pkt_size_system.cpu.icache.mem_side::total     11110208                       # Cumulative packet size per connected master and slave (bytes)
system.membus.pkt_size_system.cpu.dcache.mem_side::system.bridge.slave          433                       # Cumulative packet size per connected master and slave (bytes)
system.membus.pkt_size_system.cpu.dcache.mem_side::system.mem_ctrls.port      6689792                       # Cumulative packet size per connected master and slave (bytes)
system.membus.pkt_size_system.cpu.dcache.mem_side::total      6690225                       # Cumulative packet size per connected master and slave (bytes)
system.membus.pkt_size::total                17811697                       # Cumulative packet size per connected master and slave (bytes)
system.membus.snoops                               66                       # Total snoops (count)
system.membus.snoopTraffic                       4224                       # Total snoop traffic (bytes)
system.membus.snoop_fanout::samples            157403                       # Request fanout histogram
system.membus.snoop_fanout::mean             0.002814                       # Request fanout histogram
system.membus.snoop_fanout::stdev            0.052977                       # Request fanout histogram
system.membus.snoop_fanout::underflows              0      0.00%      0.00% # Request fanout histogram
system.membus.snoop_fanout::0                  156960     99.72%     99.72% # Request fanout histogram
system.membus.snoop_fanout::1                     443      0.28%    100.00% # Request fanout histogram
system.membus.snoop_fanout::2                       0      0.00%    100.00% # Request fanout histogram
system.membus.snoop_fanout::3                       0      0.00%    100.00% # Request fanout histogram
system.membus.snoop_fanout::overflows               0      0.00%    100.00% # Request fanout histogram
system.membus.snoop_fanout::min_value               0                       # Request fanout histogram
system.membus.snoop_fanout::max_value               1                       # Request fanout histogram
system.membus.snoop_fanout::total              157403                       # Request fanout histogram
system.membus.reqLayer0.occupancy              351500                       # Layer occupancy (ticks)
system.membus.reqLayer0.utilization               0.0                       # Layer utilization (%)
system.membus.reqLayer1.occupancy           820738037                       # Layer occupancy (ticks)
system.membus.reqLayer1.utilization               6.9                       # Layer utilization (%)
system.membus.reqLayer2.occupancy                4500                       # Layer occupancy (ticks)
system.membus.reqLayer2.utilization               0.0                       # Layer utilization (%)
system.membus.respLayer1.occupancy              17997                       # Layer occupancy (ticks)
system.membus.respLayer1.utilization              0.0                       # Layer utilization (%)
system.membus.respLayer3.occupancy          375803750                       # Layer occupancy (ticks)
system.membus.respLayer3.utilization              3.2                       # Layer utilization (%)
system.membus.badaddr_responder.pwrStateResidencyTicks::UNDEFINED 2541875716500                       # Cumulative time (in ticks) in various power states
system.membus.respLayer2.occupancy          461941250                       # Layer occupancy (ticks)
system.membus.respLayer2.utilization              3.9                       # Layer utilization (%)
system.clk_domain.clock                          1000                       # Clock period in ticks
system.tsunami.fake_uart1.pwrStateResidencyTicks::UNDEFINED 2541875716500                       # Cumulative time (in ticks) in various power states
system.tsunami.fake_uart2.pwrStateResidencyTicks::UNDEFINED 2541875716500                       # Cumulative time (in ticks) in various power states
system.tsunami.fake_uart3.pwrStateResidencyTicks::UNDEFINED 2541875716500                       # Cumulative time (in ticks) in various power states
system.tsunami.fake_uart4.pwrStateResidencyTicks::UNDEFINED 2541875716500                       # Cumulative time (in ticks) in various power states
system.tsunami.fake_ppc.pwrStateResidencyTicks::UNDEFINED 2541875716500                       # Cumulative time (in ticks) in various power states
system.tsunami.cchip.pwrStateResidencyTicks::UNDEFINED 2541875716500                       # Cumulative time (in ticks) in various power states
system.tsunami.io.pwrStateResidencyTicks::UNDEFINED 2541875716500                       # Cumulative time (in ticks) in various power states
system.tsunami.pchip.pwrStateResidencyTicks::UNDEFINED 2541875716500                       # Cumulative time (in ticks) in various power states
system.tsunami.fake_ata1.pwrStateResidencyTicks::UNDEFINED 2541875716500                       # Cumulative time (in ticks) in various power states
system.tsunami.fake_ata0.pwrStateResidencyTicks::UNDEFINED 2541875716500                       # Cumulative time (in ticks) in various power states
system.tsunami.backdoor.pwrStateResidencyTicks::UNDEFINED 2541875716500                       # Cumulative time (in ticks) in various power states
system.tsunami.fake_pnp_read3.pwrStateResidencyTicks::UNDEFINED 2541875716500                       # Cumulative time (in ticks) in various power states
system.tsunami.fake_pnp_read2.pwrStateResidencyTicks::UNDEFINED 2541875716500                       # Cumulative time (in ticks) in various power states
system.tsunami.fake_pnp_read1.pwrStateResidencyTicks::UNDEFINED 2541875716500                       # Cumulative time (in ticks) in various power states
system.tsunami.fake_pnp_read0.pwrStateResidencyTicks::UNDEFINED 2541875716500                       # Cumulative time (in ticks) in various power states
system.tsunami.fake_pnp_read7.pwrStateResidencyTicks::UNDEFINED 2541875716500                       # Cumulative time (in ticks) in various power states
system.tsunami.fake_pnp_read6.pwrStateResidencyTicks::UNDEFINED 2541875716500                       # Cumulative time (in ticks) in various power states
system.tsunami.fake_pnp_read5.pwrStateResidencyTicks::UNDEFINED 2541875716500                       # Cumulative time (in ticks) in various power states
system.tsunami.fake_pnp_read4.pwrStateResidencyTicks::UNDEFINED 2541875716500                       # Cumulative time (in ticks) in various power states
system.tsunami.fake_pnp_write.pwrStateResidencyTicks::UNDEFINED 2541875716500                       # Cumulative time (in ticks) in various power states
system.tsunami.fb.pwrStateResidencyTicks::UNDEFINED 2541875716500                       # Cumulative time (in ticks) in various power states
system.tsunami.fake_pnp_addr.pwrStateResidencyTicks::UNDEFINED 2541875716500                       # Cumulative time (in ticks) in various power states
system.tsunami.fake_OROM.pwrStateResidencyTicks::UNDEFINED 2541875716500                       # Cumulative time (in ticks) in various power states
system.tsunami.uart.pwrStateResidencyTicks::UNDEFINED 2541875716500                       # Cumulative time (in ticks) in various power states
system.tsunami.fake_sm_chip.pwrStateResidencyTicks::UNDEFINED 2541875716500                       # Cumulative time (in ticks) in various power states
system.tsunami.ethernet.pwrStateResidencyTicks::UNDEFINED 2541875716500                       # Cumulative time (in ticks) in various power states
system.tsunami.ide.pwrStateResidencyTicks::UNDEFINED 2541875716500                       # Cumulative time (in ticks) in various power states
system.cpu_voltage_domain.voltage                   1                       # Voltage in Volts
system.mem_ctrls.pwrStateResidencyTicks::UNDEFINED 2541875716500                       # Cumulative time (in ticks) in various power states
system.mem_ctrls.bytes_read::.cpu.inst        5571968                       # Number of bytes read from this memory
system.mem_ctrls.bytes_read::.cpu.data        4470848                       # Number of bytes read from this memory
system.mem_ctrls.bytes_read::total           10042816                       # Number of bytes read from this memory
system.mem_ctrls.bytes_inst_read::.cpu.inst      5571968                       # Number of instructions bytes read from this memory
system.mem_ctrls.bytes_inst_read::total       5571968                       # Number of instructions bytes read from this memory
system.mem_ctrls.bytes_written::.writebacks      2230208                       # Number of bytes written to this memory
system.mem_ctrls.bytes_written::total         2230208                       # Number of bytes written to this memory
system.mem_ctrls.num_reads::.cpu.inst           87062                       # Number of read requests responded to by this memory
system.mem_ctrls.num_reads::.cpu.data           69857                       # Number of read requests responded to by this memory
system.mem_ctrls.num_reads::total              156919                       # Number of read requests responded to by this memory
system.mem_ctrls.num_writes::.writebacks        34847                       # Number of write requests responded to by this memory
system.mem_ctrls.num_writes::total              34847                       # Number of write requests responded to by this memory
system.mem_ctrls.bw_read::.cpu.inst         469579331                       # Total read bandwidth from this memory (bytes/s)
system.mem_ctrls.bw_read::.cpu.data         376782102                       # Total read bandwidth from this memory (bytes/s)
system.mem_ctrls.bw_read::total             846361432                       # Total read bandwidth from this memory (bytes/s)
system.mem_ctrls.bw_inst_read::.cpu.inst    469579331                       # Instruction read bandwidth from this memory (bytes/s)
system.mem_ctrls.bw_inst_read::total        469579331                       # Instruction read bandwidth from this memory (bytes/s)
system.mem_ctrls.bw_write::.writebacks      187951471                       # Write bandwidth from this memory (bytes/s)
system.mem_ctrls.bw_write::total            187951471                       # Write bandwidth from this memory (bytes/s)
system.mem_ctrls.bw_total::.writebacks      187951471                       # Total bandwidth to/from this memory (bytes/s)
system.mem_ctrls.bw_total::.cpu.inst        469579331                       # Total bandwidth to/from this memory (bytes/s)
system.mem_ctrls.bw_total::.cpu.data        376782102                       # Total bandwidth to/from this memory (bytes/s)
system.mem_ctrls.bw_total::total           1034312903                       # Total bandwidth to/from this memory (bytes/s)
system.mem_ctrls.avgPriority_.writebacks::samples    118937.00                       # Average QoS priority value for accepted requests
system.mem_ctrls.avgPriority_.cpu.inst::samples     77235.00                       # Average QoS priority value for accepted requests
system.mem_ctrls.avgPriority_.cpu.data::samples     69360.00                       # Average QoS priority value for accepted requests
system.mem_ctrls.priorityMinLatency      0.000000018750                       # per QoS priority minimum request to response latency (s)
system.mem_ctrls.priorityMaxLatency      0.000181866750                       # per QoS priority maximum request to response latency (s)
system.mem_ctrls.numReadWriteTurnArounds         7324                       # Number of turnarounds from READ to WRITE
system.mem_ctrls.numWriteReadTurnArounds         7324                       # Number of turnarounds from WRITE to READ
system.mem_ctrls.numStayReadState              406615                       # Number of times bus staying in READ state
system.mem_ctrls.numStayWriteState             111679                       # Number of times bus staying in WRITE state
system.mem_ctrls.readReqs                      156919                       # Number of read requests accepted
system.mem_ctrls.writeReqs                     121166                       # Number of write requests accepted
system.mem_ctrls.readBursts                    156919                       # Number of DRAM read bursts, including those serviced by the write queue
system.mem_ctrls.writeBursts                   121166                       # Number of DRAM write bursts, including those merged in the write queue
system.mem_ctrls.servicedByWrQ                  10324                       # Number of DRAM read bursts serviced by the write queue
system.mem_ctrls.mergedWrBursts                  2229                       # Number of DRAM write bursts merged with an existing one
system.mem_ctrls.neitherReadNorWriteReqs            0                       # Number of requests that are neither read nor write
system.mem_ctrls.perBankRdBursts::0              8756                       # Per bank write bursts
system.mem_ctrls.perBankRdBursts::1              6623                       # Per bank write bursts
system.mem_ctrls.perBankRdBursts::2              9941                       # Per bank write bursts
system.mem_ctrls.perBankRdBursts::3              7182                       # Per bank write bursts
system.mem_ctrls.perBankRdBursts::4              8519                       # Per bank write bursts
system.mem_ctrls.perBankRdBursts::5             10002                       # Per bank write bursts
system.mem_ctrls.perBankRdBursts::6              8563                       # Per bank write bursts
system.mem_ctrls.perBankRdBursts::7              8683                       # Per bank write bursts
system.mem_ctrls.perBankRdBursts::8             11764                       # Per bank write bursts
system.mem_ctrls.perBankRdBursts::9              9238                       # Per bank write bursts
system.mem_ctrls.perBankRdBursts::10            10611                       # Per bank write bursts
system.mem_ctrls.perBankRdBursts::11            11978                       # Per bank write bursts
system.mem_ctrls.perBankRdBursts::12             8836                       # Per bank write bursts
system.mem_ctrls.perBankRdBursts::13            13506                       # Per bank write bursts
system.mem_ctrls.perBankRdBursts::14             5533                       # Per bank write bursts
system.mem_ctrls.perBankRdBursts::15             6860                       # Per bank write bursts
system.mem_ctrls.perBankWrBursts::0              7048                       # Per bank write bursts
system.mem_ctrls.perBankWrBursts::1              4458                       # Per bank write bursts
system.mem_ctrls.perBankWrBursts::2              8569                       # Per bank write bursts
system.mem_ctrls.perBankWrBursts::3              7997                       # Per bank write bursts
system.mem_ctrls.perBankWrBursts::4              7672                       # Per bank write bursts
system.mem_ctrls.perBankWrBursts::5              9821                       # Per bank write bursts
system.mem_ctrls.perBankWrBursts::6              7348                       # Per bank write bursts
system.mem_ctrls.perBankWrBursts::7              6895                       # Per bank write bursts
system.mem_ctrls.perBankWrBursts::8             10532                       # Per bank write bursts
system.mem_ctrls.perBankWrBursts::9              8395                       # Per bank write bursts
system.mem_ctrls.perBankWrBursts::10             7894                       # Per bank write bursts
system.mem_ctrls.perBankWrBursts::11             8049                       # Per bank write bursts
system.mem_ctrls.perBankWrBursts::12             5440                       # Per bank write bursts
system.mem_ctrls.perBankWrBursts::13             9903                       # Per bank write bursts
system.mem_ctrls.perBankWrBursts::14             3179                       # Per bank write bursts
system.mem_ctrls.perBankWrBursts::15             5713                       # Per bank write bursts
system.mem_ctrls.avgRdQLen                       1.09                       # Average read queue length when enqueuing
system.mem_ctrls.avgWrQLen                      25.70                       # Average write queue length when enqueuing
system.mem_ctrls.totQLat                   2010003000                       # Total ticks spent queuing
system.mem_ctrls.totBusLat                  732975000                       # Total ticks spent in databus transfers
system.mem_ctrls.totMemAccLat              4758659250                       # Total ticks spent from burst creation until serviced by the DRAM
system.mem_ctrls.avgQLat                     13711.27                       # Average queueing delay per DRAM burst
system.mem_ctrls.avgBusLat                    5000.00                       # Average bus latency per DRAM burst
system.mem_ctrls.avgMemAccLat                32461.27                       # Average memory access latency per DRAM burst
system.mem_ctrls.numRdRetry                         0                       # Number of times read queue was full causing retry
system.mem_ctrls.numWrRetry                         0                       # Number of times write queue was full causing retry
system.mem_ctrls.readRowHits                   103914                       # Number of row buffer hits during reads
system.mem_ctrls.writeRowHits                   80070                       # Number of row buffer hits during writes
system.mem_ctrls.readRowHitRate                 70.89                       # Row buffer hit rate for reads
system.mem_ctrls.writeRowHitRate                67.32                       # Row buffer hit rate for writes
system.mem_ctrls.readPktSize::0                     0                       # Read request sizes (log2)
system.mem_ctrls.readPktSize::1                     0                       # Read request sizes (log2)
system.mem_ctrls.readPktSize::2                     0                       # Read request sizes (log2)
system.mem_ctrls.readPktSize::3                     0                       # Read request sizes (log2)
system.mem_ctrls.readPktSize::4                     0                       # Read request sizes (log2)
system.mem_ctrls.readPktSize::5                     0                       # Read request sizes (log2)
system.mem_ctrls.readPktSize::6                156919                       # Read request sizes (log2)
system.mem_ctrls.writePktSize::0                    0                       # Write request sizes (log2)
system.mem_ctrls.writePktSize::1                    0                       # Write request sizes (log2)
system.mem_ctrls.writePktSize::2                    0                       # Write request sizes (log2)
system.mem_ctrls.writePktSize::3                    0                       # Write request sizes (log2)
system.mem_ctrls.writePktSize::4                    0                       # Write request sizes (log2)
system.mem_ctrls.writePktSize::5                    0                       # Write request sizes (log2)
system.mem_ctrls.writePktSize::6               121166                       # Write request sizes (log2)
system.mem_ctrls.rdQLenPdf::0                  134085                       # What read queue length does an incoming req see
system.mem_ctrls.rdQLenPdf::1                   12192                       # What read queue length does an incoming req see
system.mem_ctrls.rdQLenPdf::2                     318                       # What read queue length does an incoming req see
system.mem_ctrls.rdQLenPdf::3                       0                       # What read queue length does an incoming req see
system.mem_ctrls.rdQLenPdf::4                       0                       # What read queue length does an incoming req see
system.mem_ctrls.rdQLenPdf::5                       0                       # What read queue length does an incoming req see
system.mem_ctrls.rdQLenPdf::6                       0                       # What read queue length does an incoming req see
system.mem_ctrls.rdQLenPdf::7                       0                       # What read queue length does an incoming req see
system.mem_ctrls.rdQLenPdf::8                       0                       # What read queue length does an incoming req see
system.mem_ctrls.rdQLenPdf::9                       0                       # What read queue length does an incoming req see
system.mem_ctrls.rdQLenPdf::10                      0                       # What read queue length does an incoming req see
system.mem_ctrls.rdQLenPdf::11                      0                       # What read queue length does an incoming req see
system.mem_ctrls.rdQLenPdf::12                      0                       # What read queue length does an incoming req see
system.mem_ctrls.rdQLenPdf::13                      0                       # What read queue length does an incoming req see
system.mem_ctrls.rdQLenPdf::14                      0                       # What read queue length does an incoming req see
system.mem_ctrls.rdQLenPdf::15                      0                       # What read queue length does an incoming req see
system.mem_ctrls.rdQLenPdf::16                      0                       # What read queue length does an incoming req see
system.mem_ctrls.rdQLenPdf::17                      0                       # What read queue length does an incoming req see
system.mem_ctrls.rdQLenPdf::18                      0                       # What read queue length does an incoming req see
system.mem_ctrls.rdQLenPdf::19                      0                       # What read queue length does an incoming req see
system.mem_ctrls.rdQLenPdf::20                      0                       # What read queue length does an incoming req see
system.mem_ctrls.rdQLenPdf::21                      0                       # What read queue length does an incoming req see
system.mem_ctrls.rdQLenPdf::22                      0                       # What read queue length does an incoming req see
system.mem_ctrls.rdQLenPdf::23                      0                       # What read queue length does an incoming req see
system.mem_ctrls.rdQLenPdf::24                      0                       # What read queue length does an incoming req see
system.mem_ctrls.rdQLenPdf::25                      0                       # What read queue length does an incoming req see
system.mem_ctrls.rdQLenPdf::26                      0                       # What read queue length does an incoming req see
system.mem_ctrls.rdQLenPdf::27                      0                       # What read queue length does an incoming req see
system.mem_ctrls.rdQLenPdf::28                      0                       # What read queue length does an incoming req see
system.mem_ctrls.rdQLenPdf::29                      0                       # What read queue length does an incoming req see
system.mem_ctrls.rdQLenPdf::30                      0                       # What read queue length does an incoming req see
system.mem_ctrls.rdQLenPdf::31                      0                       # What read queue length does an incoming req see
system.mem_ctrls.wrQLenPdf::0                       1                       # What write queue length does an incoming req see
system.mem_ctrls.wrQLenPdf::1                       1                       # What write queue length does an incoming req see
system.mem_ctrls.wrQLenPdf::2                       1                       # What write queue length does an incoming req see
system.mem_ctrls.wrQLenPdf::3                       1                       # What write queue length does an incoming req see
system.mem_ctrls.wrQLenPdf::4                       1                       # What write queue length does an incoming req see
system.mem_ctrls.wrQLenPdf::5                       1                       # What write queue length does an incoming req see
system.mem_ctrls.wrQLenPdf::6                       1                       # What write queue length does an incoming req see
system.mem_ctrls.wrQLenPdf::7                       1                       # What write queue length does an incoming req see
system.mem_ctrls.wrQLenPdf::8                       1                       # What write queue length does an incoming req see
system.mem_ctrls.wrQLenPdf::9                       1                       # What write queue length does an incoming req see
system.mem_ctrls.wrQLenPdf::10                      1                       # What write queue length does an incoming req see
system.mem_ctrls.wrQLenPdf::11                      1                       # What write queue length does an incoming req see
system.mem_ctrls.wrQLenPdf::12                      1                       # What write queue length does an incoming req see
system.mem_ctrls.wrQLenPdf::13                      1                       # What write queue length does an incoming req see
system.mem_ctrls.wrQLenPdf::14                      1                       # What write queue length does an incoming req see
system.mem_ctrls.wrQLenPdf::15                    622                       # What write queue length does an incoming req see
system.mem_ctrls.wrQLenPdf::16                    733                       # What write queue length does an incoming req see
system.mem_ctrls.wrQLenPdf::17                   6678                       # What write queue length does an incoming req see
system.mem_ctrls.wrQLenPdf::18                   7332                       # What write queue length does an incoming req see
system.mem_ctrls.wrQLenPdf::19                   7462                       # What write queue length does an incoming req see
system.mem_ctrls.wrQLenPdf::20                   7394                       # What write queue length does an incoming req see
system.mem_ctrls.wrQLenPdf::21                   7407                       # What write queue length does an incoming req see
system.mem_ctrls.wrQLenPdf::22                   7519                       # What write queue length does an incoming req see
system.mem_ctrls.wrQLenPdf::23                   7412                       # What write queue length does an incoming req see
system.mem_ctrls.wrQLenPdf::24                   7383                       # What write queue length does an incoming req see
system.mem_ctrls.wrQLenPdf::25                   7390                       # What write queue length does an incoming req see
system.mem_ctrls.wrQLenPdf::26                   7423                       # What write queue length does an incoming req see
system.mem_ctrls.wrQLenPdf::27                   7376                       # What write queue length does an incoming req see
system.mem_ctrls.wrQLenPdf::28                   7365                       # What write queue length does an incoming req see
system.mem_ctrls.wrQLenPdf::29                   7362                       # What write queue length does an incoming req see
system.mem_ctrls.wrQLenPdf::30                   7331                       # What write queue length does an incoming req see
system.mem_ctrls.wrQLenPdf::31                   7330                       # What write queue length does an incoming req see
system.mem_ctrls.wrQLenPdf::32                   7329                       # What write queue length does an incoming req see
system.mem_ctrls.wrQLenPdf::33                     16                       # What write queue length does an incoming req see
system.mem_ctrls.wrQLenPdf::34                      9                       # What write queue length does an incoming req see
system.mem_ctrls.wrQLenPdf::35                      6                       # What write queue length does an incoming req see
system.mem_ctrls.wrQLenPdf::36                      4                       # What write queue length does an incoming req see
system.mem_ctrls.wrQLenPdf::37                      4                       # What write queue length does an incoming req see
system.mem_ctrls.wrQLenPdf::38                      1                       # What write queue length does an incoming req see
system.mem_ctrls.wrQLenPdf::39                      1                       # What write queue length does an incoming req see
system.mem_ctrls.wrQLenPdf::40                      1                       # What write queue length does an incoming req see
system.mem_ctrls.wrQLenPdf::41                      1                       # What write queue length does an incoming req see
system.mem_ctrls.wrQLenPdf::42                      2                       # What write queue length does an incoming req see
system.mem_ctrls.wrQLenPdf::43                      1                       # What write queue length does an incoming req see
system.mem_ctrls.wrQLenPdf::44                      1                       # What write queue length does an incoming req see
system.mem_ctrls.wrQLenPdf::45                      1                       # What write queue length does an incoming req see
system.mem_ctrls.wrQLenPdf::46                      1                       # What write queue length does an incoming req see
system.mem_ctrls.wrQLenPdf::47                      1                       # What write queue length does an incoming req see
system.mem_ctrls.wrQLenPdf::48                      1                       # What write queue length does an incoming req see
system.mem_ctrls.wrQLenPdf::49                      1                       # What write queue length does an incoming req see
system.mem_ctrls.wrQLenPdf::50                      1                       # What write queue length does an incoming req see
system.mem_ctrls.wrQLenPdf::51                      1                       # What write queue length does an incoming req see
system.mem_ctrls.wrQLenPdf::52                      1                       # What write queue length does an incoming req see
system.mem_ctrls.wrQLenPdf::53                      1                       # What write queue length does an incoming req see
system.mem_ctrls.wrQLenPdf::54                      1                       # What write queue length does an incoming req see
system.mem_ctrls.wrQLenPdf::55                      1                       # What write queue length does an incoming req see
system.mem_ctrls.wrQLenPdf::56                      1                       # What write queue length does an incoming req see
system.mem_ctrls.wrQLenPdf::57                      2                       # What write queue length does an incoming req see
system.mem_ctrls.wrQLenPdf::58                      7                       # What write queue length does an incoming req see
system.mem_ctrls.wrQLenPdf::59                      1                       # What write queue length does an incoming req see
system.mem_ctrls.wrQLenPdf::60                      1                       # What write queue length does an incoming req see
system.mem_ctrls.wrQLenPdf::61                      3                       # What write queue length does an incoming req see
system.mem_ctrls.wrQLenPdf::62                      1                       # What write queue length does an incoming req see
system.mem_ctrls.wrQLenPdf::63                      0                       # What write queue length does an incoming req see
system.mem_ctrls.bytesPerActivate::samples        81509                       # Bytes accessed per row activation
system.mem_ctrls.bytesPerActivate::mean    208.443436                       # Bytes accessed per row activation
system.mem_ctrls.bytesPerActivate::gmean   140.130648                       # Bytes accessed per row activation
system.mem_ctrls.bytesPerActivate::stdev   225.207120                       # Bytes accessed per row activation
system.mem_ctrls.bytesPerActivate::0-127        34507     42.34%     42.34% # Bytes accessed per row activation
system.mem_ctrls.bytesPerActivate::128-255        24368     29.90%     72.23% # Bytes accessed per row activation
system.mem_ctrls.bytesPerActivate::256-383         9876     12.12%     84.35% # Bytes accessed per row activation
system.mem_ctrls.bytesPerActivate::384-511         4589      5.63%     89.98% # Bytes accessed per row activation
system.mem_ctrls.bytesPerActivate::512-639         2411      2.96%     92.94% # Bytes accessed per row activation
system.mem_ctrls.bytesPerActivate::640-767         1431      1.76%     94.69% # Bytes accessed per row activation
system.mem_ctrls.bytesPerActivate::768-895          939      1.15%     95.84% # Bytes accessed per row activation
system.mem_ctrls.bytesPerActivate::896-1023          580      0.71%     96.55% # Bytes accessed per row activation
system.mem_ctrls.bytesPerActivate::1024-1151         2808      3.45%    100.00% # Bytes accessed per row activation
system.mem_ctrls.bytesPerActivate::total        81509                       # Bytes accessed per row activation
system.mem_ctrls.rdPerTurnAround::samples         7324                       # Reads before turning the bus around for writes
system.mem_ctrls.rdPerTurnAround::mean      20.014746                       # Reads before turning the bus around for writes
system.mem_ctrls.rdPerTurnAround::gmean     18.408782                       # Reads before turning the bus around for writes
system.mem_ctrls.rdPerTurnAround::stdev     12.718265                       # Reads before turning the bus around for writes
system.mem_ctrls.rdPerTurnAround::0-15           1311     17.90%     17.90% # Reads before turning the bus around for writes
system.mem_ctrls.rdPerTurnAround::16-31          5538     75.61%     93.51% # Reads before turning the bus around for writes
system.mem_ctrls.rdPerTurnAround::32-47           281      3.84%     97.35% # Reads before turning the bus around for writes
system.mem_ctrls.rdPerTurnAround::48-63            96      1.31%     98.66% # Reads before turning the bus around for writes
system.mem_ctrls.rdPerTurnAround::64-79            32      0.44%     99.10% # Reads before turning the bus around for writes
system.mem_ctrls.rdPerTurnAround::80-95            23      0.31%     99.41% # Reads before turning the bus around for writes
system.mem_ctrls.rdPerTurnAround::96-111           18      0.25%     99.66% # Reads before turning the bus around for writes
system.mem_ctrls.rdPerTurnAround::112-127            8      0.11%     99.77% # Reads before turning the bus around for writes
system.mem_ctrls.rdPerTurnAround::128-143           11      0.15%     99.92% # Reads before turning the bus around for writes
system.mem_ctrls.rdPerTurnAround::144-159            2      0.03%     99.95% # Reads before turning the bus around for writes
system.mem_ctrls.rdPerTurnAround::160-175            1      0.01%     99.96% # Reads before turning the bus around for writes
system.mem_ctrls.rdPerTurnAround::176-191            1      0.01%     99.97% # Reads before turning the bus around for writes
system.mem_ctrls.rdPerTurnAround::256-271            1      0.01%     99.99% # Reads before turning the bus around for writes
system.mem_ctrls.rdPerTurnAround::400-415            1      0.01%    100.00% # Reads before turning the bus around for writes
system.mem_ctrls.rdPerTurnAround::total          7324                       # Reads before turning the bus around for writes
system.mem_ctrls.wrPerTurnAround::samples         7324                       # Writes before turning the bus around for reads
system.mem_ctrls.wrPerTurnAround::mean      16.236073                       # Writes before turning the bus around for reads
system.mem_ctrls.wrPerTurnAround::gmean     16.220625                       # Writes before turning the bus around for reads
system.mem_ctrls.wrPerTurnAround::stdev      0.741913                       # Writes before turning the bus around for reads
system.mem_ctrls.wrPerTurnAround::16             6563     89.61%     89.61% # Writes before turning the bus around for reads
system.mem_ctrls.wrPerTurnAround::17               95      1.30%     90.91% # Writes before turning the bus around for reads
system.mem_ctrls.wrPerTurnAround::18              436      5.95%     96.86% # Writes before turning the bus around for reads
system.mem_ctrls.wrPerTurnAround::19              165      2.25%     99.11% # Writes before turning the bus around for reads
system.mem_ctrls.wrPerTurnAround::20               61      0.83%     99.95% # Writes before turning the bus around for reads
system.mem_ctrls.wrPerTurnAround::21                3      0.04%     99.99% # Writes before turning the bus around for reads
system.mem_ctrls.wrPerTurnAround::24                1      0.01%    100.00% # Writes before turning the bus around for reads
system.mem_ctrls.wrPerTurnAround::total          7324                       # Writes before turning the bus around for reads
system.mem_ctrls.bytesReadDRAM                9382080                       # Total number of bytes read from DRAM
system.mem_ctrls.bytesReadWrQ                  660736                       # Total number of bytes read from write queue
system.mem_ctrls.bytesWritten                 7610432                       # Total number of bytes written to DRAM
system.mem_ctrls.bytesReadSys                10042816                       # Total read bytes from the system interface side
system.mem_ctrls.bytesWrittenSys              7754624                       # Total written bytes from the system interface side
system.mem_ctrls.avgRdBW                       790.68                       # Average DRAM read bandwidth in MiByte/s
system.mem_ctrls.avgWrBW                       641.37                       # Average achieved write bandwidth in MiByte/s
system.mem_ctrls.avgRdBWSys                    846.36                       # Average system read bandwidth in MiByte/s
system.mem_ctrls.avgWrBWSys                    653.52                       # Average system write bandwidth in MiByte/s
system.mem_ctrls.peakBW                      12800.00                       # Theoretical peak bandwidth in MiByte/s
system.mem_ctrls.busUtil                        11.19                       # Data bus utilization in percentage
system.mem_ctrls.busUtilRead                     6.18                       # Data bus utilization in percentage for reads
system.mem_ctrls.busUtilWrite                    5.01                       # Data bus utilization in percentage for writes
system.mem_ctrls.totGap                   11865866500                       # Total gap between requests
system.mem_ctrls.avgGap                      42669.93                       # Average gap between requests
system.mem_ctrls.masterReadBytes::.cpu.inst      4943040                       # Per-master bytes read from memory
system.mem_ctrls.masterReadBytes::.cpu.data      4439040                       # Per-master bytes read from memory
system.mem_ctrls.masterWriteBytes::.writebacks      7610432                       # Per-master bytes write to memory
system.mem_ctrls.masterReadRate::.cpu.inst 416576228.724539935589                       # Per-master bytes read from memory rate (Bytes/sec)
[...]
system.cpu.icache.tags.occ_percent::.cpu.inst            1                       # Average percentage of cache occupancy
system.cpu.icache.tags.occ_percent::total            1                       # Average percentage of cache occupancy
system.cpu.icache.tags.occ_task_id_blocks::1024          512                       # Occupied blocks per task id
system.cpu.icache.tags.age_task_id_blocks_1024::2          176                       # Occupied blocks per task id
system.cpu.icache.tags.age_task_id_blocks_1024::3          320                       # Occupied blocks per task id
system.cpu.icache.tags.age_task_id_blocks_1024::4           16                       # Occupied blocks per task id
system.cpu.icache.tags.occ_task_id_percent::1024            1                       # Percentage of cache occupancy per task id
system.cpu.icache.tags.tag_accesses         292554835                       # Number of tag accesses
system.cpu.icache.tags.data_accesses        292554835                       # Number of data accesses
system.cpu.dcache.pwrStateResidencyTicks::UNDEFINED 320199808000                       # Cumulative time (in ticks) in various power states
system.cpu.dcache.demand_hits::.cpu.data    152636567                       # number of demand (read+write) hits
system.cpu.dcache.demand_hits::total        152636567                       # number of demand (read+write) hits
system.cpu.dcache.overall_hits::.cpu.data    152636567                       # number of overall hits
system.cpu.dcache.overall_hits::total       152636567                       # number of overall hits
system.cpu.dcache.demand_misses::.cpu.data       483880                       # number of demand (read+write) misses
system.cpu.dcache.demand_misses::total         483880                       # number of demand (read+write) misses
system.cpu.dcache.overall_misses::.cpu.data       483880                       # number of overall misses
system.cpu.dcache.overall_misses::total        483880                       # number of overall misses
system.cpu.dcache.demand_miss_latency::.cpu.data  31250742000                       # number of demand (read+write) miss cycles
system.cpu.dcache.demand_miss_latency::total  31250742000                       # number of demand (read+write) miss cycles
system.cpu.dcache.overall_miss_latency::.cpu.data  31250742000                       # number of overall miss cycles
system.cpu.dcache.overall_miss_latency::total  31250742000                       # number of overall miss cycles
system.cpu.dcache.demand_accesses::.cpu.data    153120447                       # number of demand (read+write) accesses
system.cpu.dcache.demand_accesses::total    153120447                       # number of demand (read+write) accesses
system.cpu.dcache.overall_accesses::.cpu.data    153120447                       # number of overall (read+write) accesses
system.cpu.dcache.overall_accesses::total    153120447                       # number of overall (read+write) accesses
system.cpu.dcache.demand_miss_rate::.cpu.data     0.003160                       # miss rate for demand accesses
system.cpu.dcache.demand_miss_rate::total     0.003160                       # miss rate for demand accesses
system.cpu.dcache.overall_miss_rate::.cpu.data     0.003160                       # miss rate for overall accesses
system.cpu.dcache.overall_miss_rate::total     0.003160                       # miss rate for overall accesses
system.cpu.dcache.demand_avg_miss_latency::.cpu.data 64583.661238                       # average overall miss latency
system.cpu.dcache.demand_avg_miss_latency::total 64583.661238                       # average overall miss latency
system.cpu.dcache.overall_avg_miss_latency::.cpu.data 64583.661238                       # average overall miss latency
system.cpu.dcache.overall_avg_miss_latency::total 64583.661238                       # average overall miss latency
system.cpu.dcache.blocked_cycles::no_mshrs            0                       # number of cycles access was blocked
system.cpu.dcache.blocked_cycles::no_targets            0                       # number of cycles access was blocked
system.cpu.dcache.blocked::no_mshrs                 0                       # number of cycles access was blocked
system.cpu.dcache.blocked::no_targets               0                       # number of cycles access was blocked
system.cpu.dcache.avg_blocked_cycles::no_mshrs          nan                       # average number of cycles each access was blocked
system.cpu.dcache.avg_blocked_cycles::no_targets          nan                       # average number of cycles each access was blocked
system.cpu.dcache.writebacks::.writebacks       262108                       # number of writebacks
system.cpu.dcache.writebacks::total            262108                       # number of writebacks
system.cpu.dcache.demand_mshr_hits::.cpu.data        97030                       # number of demand (read+write) MSHR hits
system.cpu.dcache.demand_mshr_hits::total        97030                       # number of demand (read+write) MSHR hits
system.cpu.dcache.overall_mshr_hits::.cpu.data        97030                       # number of overall MSHR hits
system.cpu.dcache.overall_mshr_hits::total        97030                       # number of overall MSHR hits
system.cpu.dcache.demand_mshr_misses::.cpu.data       386850                       # number of demand (read+write) MSHR misses
system.cpu.dcache.demand_mshr_misses::total       386850                       # number of demand (read+write) MSHR misses
system.cpu.dcache.overall_mshr_misses::.cpu.data       386850                       # number of overall MSHR misses
system.cpu.dcache.overall_mshr_misses::total       386850                       # number of overall MSHR misses
system.cpu.dcache.overall_mshr_uncacheable_misses::.cpu.data         1644                       # number of overall MSHR uncacheable misses
system.cpu.dcache.overall_mshr_uncacheable_misses::total         1644                       # number of overall MSHR uncacheable misses
system.cpu.dcache.demand_mshr_miss_latency::.cpu.data  24917754000                       # number of demand (read+write) MSHR miss cycles
system.cpu.dcache.demand_mshr_miss_latency::total  24917754000                       # number of demand (read+write) MSHR miss cycles
system.cpu.dcache.overall_mshr_miss_latency::.cpu.data  24917754000                       # number of overall MSHR miss cycles
system.cpu.dcache.overall_mshr_miss_latency::total  24917754000                       # number of overall MSHR miss cycles
system.cpu.dcache.overall_mshr_uncacheable_latency::.cpu.data     76412500                       # number of overall MSHR uncacheable cycles
system.cpu.dcache.overall_mshr_uncacheable_latency::total     76412500                       # number of overall MSHR uncacheable cycles
system.cpu.dcache.demand_mshr_miss_rate::.cpu.data     0.002526                       # mshr miss rate for demand accesses
system.cpu.dcache.demand_mshr_miss_rate::total     0.002526                       # mshr miss rate for demand accesses
system.cpu.dcache.overall_mshr_miss_rate::.cpu.data     0.002526                       # mshr miss rate for overall accesses
system.cpu.dcache.overall_mshr_miss_rate::total     0.002526                       # mshr miss rate for overall accesses
system.cpu.dcache.demand_avg_mshr_miss_latency::.cpu.data 64411.927104                       # average overall mshr miss latency
system.cpu.dcache.demand_avg_mshr_miss_latency::total 64411.927104                       # average overall mshr miss latency
system.cpu.dcache.overall_avg_mshr_miss_latency::.cpu.data 64411.927104                       # average overall mshr miss latency
system.cpu.dcache.overall_avg_mshr_miss_latency::total 64411.927104                       # average overall mshr miss latency
system.cpu.dcache.overall_avg_mshr_uncacheable_latency::.cpu.data 46479.622871                       # average overall mshr uncacheable latency
system.cpu.dcache.overall_avg_mshr_uncacheable_latency::total 46479.622871                       # average overall mshr uncacheable latency
system.cpu.dcache.replacements                 389518                       # number of replacements
system.cpu.dcache.ReadReq_hits::.cpu.data    106068775                       # number of ReadReq hits
system.cpu.dcache.ReadReq_hits::total       106068775                       # number of ReadReq hits
system.cpu.dcache.ReadReq_misses::.cpu.data       272237                       # number of ReadReq misses
system.cpu.dcache.ReadReq_misses::total        272237                       # number of ReadReq misses
system.cpu.dcache.ReadReq_miss_latency::.cpu.data  18504579500                       # number of ReadReq miss cycles
system.cpu.dcache.ReadReq_miss_latency::total  18504579500                       # number of ReadReq miss cycles
system.cpu.dcache.ReadReq_accesses::.cpu.data    106341012                       # number of ReadReq accesses(hits+misses)
system.cpu.dcache.ReadReq_accesses::total    106341012                       # number of ReadReq accesses(hits+misses)
system.cpu.dcache.ReadReq_miss_rate::.cpu.data     0.002560                       # miss rate for ReadReq accesses
system.cpu.dcache.ReadReq_miss_rate::total     0.002560                       # miss rate for ReadReq accesses
system.cpu.dcache.ReadReq_avg_miss_latency::.cpu.data 67972.316401                       # average ReadReq miss latency
system.cpu.dcache.ReadReq_avg_miss_latency::total 67972.316401                       # average ReadReq miss latency
system.cpu.dcache.ReadReq_mshr_hits::.cpu.data          464                       # number of ReadReq MSHR hits
system.cpu.dcache.ReadReq_mshr_hits::total          464                       # number of ReadReq MSHR hits
system.cpu.dcache.ReadReq_mshr_misses::.cpu.data       271773                       # number of ReadReq MSHR misses
system.cpu.dcache.ReadReq_mshr_misses::total       271773                       # number of ReadReq MSHR misses
system.cpu.dcache.ReadReq_mshr_uncacheable::.cpu.data          490                       # number of ReadReq MSHR uncacheable
system.cpu.dcache.ReadReq_mshr_uncacheable::total          490                       # number of ReadReq MSHR uncacheable
system.cpu.dcache.ReadReq_mshr_miss_latency::.cpu.data  18200115000                       # number of ReadReq MSHR miss cycles
system.cpu.dcache.ReadReq_mshr_miss_latency::total  18200115000                       # number of ReadReq MSHR miss cycles
system.cpu.dcache.ReadReq_mshr_uncacheable_latency::.cpu.data     76412500                       # number of ReadReq MSHR uncacheable cycles
system.cpu.dcache.ReadReq_mshr_uncacheable_latency::total     76412500                       # number of ReadReq MSHR uncacheable cycles
system.cpu.dcache.ReadReq_mshr_miss_rate::.cpu.data     0.002556                       # mshr miss rate for ReadReq accesses
system.cpu.dcache.ReadReq_mshr_miss_rate::total     0.002556                       # mshr miss rate for ReadReq accesses
system.cpu.dcache.ReadReq_avg_mshr_miss_latency::.cpu.data 66968.076299                       # average ReadReq mshr miss latency
system.cpu.dcache.ReadReq_avg_mshr_miss_latency::total 66968.076299                       # average ReadReq mshr miss latency
system.cpu.dcache.ReadReq_avg_mshr_uncacheable_latency::.cpu.data 155943.877551                       # average ReadReq mshr uncacheable latency
system.cpu.dcache.ReadReq_avg_mshr_uncacheable_latency::total 155943.877551                       # average ReadReq mshr uncacheable latency
system.cpu.dcache.WriteReq_hits::.cpu.data     46567792                       # number of WriteReq hits
system.cpu.dcache.WriteReq_hits::total       46567792                       # number of WriteReq hits
system.cpu.dcache.WriteReq_misses::.cpu.data       211643                       # number of WriteReq misses
system.cpu.dcache.WriteReq_misses::total       211643                       # number of WriteReq misses
system.cpu.dcache.WriteReq_miss_latency::.cpu.data  12746162500                       # number of WriteReq miss cycles
system.cpu.dcache.WriteReq_miss_latency::total  12746162500                       # number of WriteReq miss cycles
system.cpu.dcache.WriteReq_accesses::.cpu.data     46779435                       # number of WriteReq accesses(hits+misses)
system.cpu.dcache.WriteReq_accesses::total     46779435                       # number of WriteReq accesses(hits+misses)
system.cpu.dcache.WriteReq_miss_rate::.cpu.data     0.004524                       # miss rate for WriteReq accesses
system.cpu.dcache.WriteReq_miss_rate::total     0.004524                       # miss rate for WriteReq accesses
system.cpu.dcache.WriteReq_avg_miss_latency::.cpu.data 60224.824350                       # average WriteReq miss latency
system.cpu.dcache.WriteReq_avg_miss_latency::total 60224.824350                       # average WriteReq miss latency
system.cpu.dcache.WriteReq_mshr_hits::.cpu.data        96566                       # number of WriteReq MSHR hits
system.cpu.dcache.WriteReq_mshr_hits::total        96566                       # number of WriteReq MSHR hits
system.cpu.dcache.WriteReq_mshr_misses::.cpu.data       115077                       # number of WriteReq MSHR misses
system.cpu.dcache.WriteReq_mshr_misses::total       115077                       # number of WriteReq MSHR misses
system.cpu.dcache.WriteReq_mshr_uncacheable::.cpu.data         1154                       # number of WriteReq MSHR uncacheable
system.cpu.dcache.WriteReq_mshr_uncacheable::total         1154                       # number of WriteReq MSHR uncacheable
system.cpu.dcache.WriteReq_mshr_miss_latency::.cpu.data   6717639000                       # number of WriteReq MSHR miss cycles
system.cpu.dcache.WriteReq_mshr_miss_latency::total   6717639000                       # number of WriteReq MSHR miss cycles
system.cpu.dcache.WriteReq_mshr_miss_rate::.cpu.data     0.002460                       # mshr miss rate for WriteReq accesses
system.cpu.dcache.WriteReq_mshr_miss_rate::total     0.002460                       # mshr miss rate for WriteReq accesses
system.cpu.dcache.WriteReq_avg_mshr_miss_latency::.cpu.data 58375.166193                       # average WriteReq mshr miss latency
system.cpu.dcache.WriteReq_avg_mshr_miss_latency::total 58375.166193                       # average WriteReq mshr miss latency
system.cpu.dcache.LoadLockedReq_hits::.cpu.data     10600493                       # number of LoadLockedReq hits
system.cpu.dcache.LoadLockedReq_hits::total     10600493                       # number of LoadLockedReq hits
system.cpu.dcache.LoadLockedReq_misses::.cpu.data         2690                       # number of LoadLockedReq misses
system.cpu.dcache.LoadLockedReq_misses::total         2690                       # number of LoadLockedReq misses
system.cpu.dcache.LoadLockedReq_miss_latency::.cpu.data    215609500                       # number of LoadLockedReq miss cycles
system.cpu.dcache.LoadLockedReq_miss_latency::total    215609500                       # number of LoadLockedReq miss cycles
system.cpu.dcache.LoadLockedReq_accesses::.cpu.data     10603183                       # number of LoadLockedReq accesses(hits+misses)
system.cpu.dcache.LoadLockedReq_accesses::total     10603183                       # number of LoadLockedReq accesses(hits+misses)
system.cpu.dcache.LoadLockedReq_miss_rate::.cpu.data     0.000254                       # miss rate for LoadLockedReq accesses
system.cpu.dcache.LoadLockedReq_miss_rate::total     0.000254                       # miss rate for LoadLockedReq accesses
system.cpu.dcache.LoadLockedReq_avg_miss_latency::.cpu.data 80152.230483                       # average LoadLockedReq miss latency
system.cpu.dcache.LoadLockedReq_avg_miss_latency::total 80152.230483                       # average LoadLockedReq miss latency
system.cpu.dcache.LoadLockedReq_mshr_hits::.cpu.data           12                       # number of LoadLockedReq MSHR hits
system.cpu.dcache.LoadLockedReq_mshr_hits::total           12                       # number of LoadLockedReq MSHR hits
system.cpu.dcache.LoadLockedReq_mshr_misses::.cpu.data         2678                       # number of LoadLockedReq MSHR misses
system.cpu.dcache.LoadLockedReq_mshr_misses::total         2678                       # number of LoadLockedReq MSHR misses
system.cpu.dcache.LoadLockedReq_mshr_miss_latency::.cpu.data    211856500                       # number of LoadLockedReq MSHR miss cycles
system.cpu.dcache.LoadLockedReq_mshr_miss_latency::total    211856500                       # number of LoadLockedReq MSHR miss cycles
system.cpu.dcache.LoadLockedReq_mshr_miss_rate::.cpu.data     0.000253                       # mshr miss rate for LoadLockedReq accesses
system.cpu.dcache.LoadLockedReq_mshr_miss_rate::total     0.000253                       # mshr miss rate for LoadLockedReq accesses
system.cpu.dcache.LoadLockedReq_avg_mshr_miss_latency::.cpu.data 79109.970127                       # average LoadLockedReq mshr miss latency
system.cpu.dcache.LoadLockedReq_avg_mshr_miss_latency::total 79109.970127                       # average LoadLockedReq mshr miss latency
system.cpu.dcache.StoreCondReq_hits::.cpu.data     10603160                       # number of StoreCondReq hits
system.cpu.dcache.StoreCondReq_hits::total     10603160                       # number of StoreCondReq hits
system.cpu.dcache.StoreCondReq_accesses::.cpu.data     10603160                       # number of StoreCondReq accesses(hits+misses)
system.cpu.dcache.StoreCondReq_accesses::total     10603160                       # number of StoreCondReq accesses(hits+misses)
system.cpu.dcache.tags.pwrStateResidencyTicks::UNDEFINED 320199808000                       # Cumulative time (in ticks) in various power states
system.cpu.dcache.tags.tagsinuse                 1024                       # Cycle average of tags in use
system.cpu.dcache.tags.total_refs           174304447                       # Total number of references to valid blocks.
system.cpu.dcache.tags.sampled_refs            390542                       # Sample count of references to valid blocks.
system.cpu.dcache.tags.avg_refs            446.314217                       # Average number of references to valid blocks.
system.cpu.dcache.tags.warmup_cycle                 0                       # Cycle when the warmup percentage was hit.
system.cpu.dcache.tags.occ_blocks::.cpu.data         1024                       # Average occupied blocks per requestor
system.cpu.dcache.tags.occ_percent::.cpu.data            1                       # Average percentage of cache occupancy
system.cpu.dcache.tags.occ_percent::total            1                       # Average percentage of cache occupancy
system.cpu.dcache.tags.occ_task_id_blocks::1024         1024                       # Occupied blocks per task id
system.cpu.dcache.tags.age_task_id_blocks_1024::0            1                       # Occupied blocks per task id
system.cpu.dcache.tags.age_task_id_blocks_1024::1           37                       # Occupied blocks per task id
system.cpu.dcache.tags.age_task_id_blocks_1024::2          565                       # Occupied blocks per task id
system.cpu.dcache.tags.age_task_id_blocks_1024::3          398                       # Occupied blocks per task id
system.cpu.dcache.tags.age_task_id_blocks_1024::4           23                       # Occupied blocks per task id
system.cpu.dcache.tags.occ_task_id_percent::1024            1                       # Percentage of cache occupancy per task id
system.cpu.dcache.tags.tag_accesses         349043098                       # Number of tag accesses
system.cpu.dcache.tags.data_accesses        349043098                       # Number of data accesses

---------- End Simulation Statistics   ----------
