
---------- Begin Simulation Statistics ----------
final_tick                               2541990716500                       # Number of ticks from beginning of simulation (restored from checkpoints and never reset)
host_inst_rate                                 217247                       # Simulator instruction rate (inst/s)
host_mem_usage                                 740736                       # Number of bytes of host memory used
host_op_rate                                   217245                       # Simulator op (including micro ops) rate (op/s)
host_seconds                                    19.30                       # Real time elapsed on the host
host_tick_rate                              620678090                       # Simulator tick rate (ticks/s)
sim_freq                                 1000000000000                       # Frequency of simulated ticks
sim_insts                                     4193451                       # Number of instructions simulated
sim_ops                                       4193451                       # Number of ops (including micro ops) simulated
sim_seconds                                  0.011981                       # Number of seconds simulated
sim_ticks                                 11980871500                       # Number of ticks simulated
system.cpu.branchPred.BTBCorrect                    0                       # Number of correct BTB predictions (this stat may not work properly.
system.cpu.branchPred.BTBHitPct             46.819093                       # BTB Hit Percentage
system.cpu.branchPred.BTBHits                  416652                       # Number of BTB hits
system.cpu.branchPred.BTBLookups               889919                       # Number of BTB lookups
system.cpu.branchPred.RASInCorrect               2355                       # Number of incorrect RAS predictions.
system.cpu.branchPred.condIncorrect             93604                       # Number of conditional branches incorrect
system.cpu.branchPred.condPredicted            815647                       # Number of conditional branches predicted
system.cpu.branchPred.indirectHits              53071                       # Number of indirect target hits.
system.cpu.branchPred.indirectLookups          278303                       # Number of indirect predictor lookups.
system.cpu.branchPred.indirectMisses           225232                       # Number of indirect misses.
system.cpu.branchPred.lookups                  993649                       # Number of BP lookups
system.cpu.branchPred.usedRAS                   65958                       # Number of times the RAS was used to get a target.
system.cpu.branchPredindirectMispredicted        26953                       # Number of mispredicted indirect branches.
system.cpu.committedInsts                     4193451                       # Number of instructions committed
system.cpu.committedOps                       4193451                       # Number of ops (including micro ops) committed
system.cpu.cpi                               5.710845                       # CPI: cycles per instruction
system.cpu.discardedOps                        201045                       # Number of ops (including micro ops) which were discarded before commit
system.cpu.dtb.data_accesses                   608664                       # DTB accesses
system.cpu.dtb.data_acv                           130                       # DTB access violations
system.cpu.dtb.data_hits                      1455365                       # DTB hits
system.cpu.dtb.data_misses                       7408                       # DTB misses
system.cpu.dtb.fetch_accesses                       0                       # ITB accesses
system.cpu.dtb.fetch_acv                            0                       # ITB acv
system.cpu.dtb.fetch_hits                           0                       # ITB hits
system.cpu.dtb.fetch_misses                         0                       # ITB misses
system.cpu.dtb.read_accesses                   407384                       # DTB read accesses
system.cpu.dtb.read_acv                            43                       # DTB read access violations
system.cpu.dtb.read_hits                       853055                       # DTB read hits
system.cpu.dtb.read_misses                       6595                       # DTB read misses
system.cpu.dtb.write_accesses                  201280                       # DTB write accesses
system.cpu.dtb.write_acv                           87                       # DTB write access violations
system.cpu.dtb.write_hits                      602310                       # DTB write hits
system.cpu.dtb.write_misses                       813                       # DTB write misses
system.cpu.fetch2.amo_instructions                  0                       # Number of memory atomic instructions successfully decoded
system.cpu.fetch2.fp_instructions               18039                       # Number of floating point instructions successfully decoded
system.cpu.fetch2.int_instructions            3433398                       # Number of integer instructions successfully decoded
system.cpu.fetch2.load_instructions           1054868                       # Number of memory load instructions successfully decoded
system.cpu.fetch2.store_instructions           664688                       # Number of memory store instructions successfully decoded
system.cpu.fetch2.vec_instructions                  0                       # Number of SIMD instructions successfully decoded
system.cpu.idleCycles                        16774515                       # Total number of cycles that the object has spent stopped
system.cpu.ipc                               0.175105                       # IPC: instructions per cycle
system.cpu.itb.data_accesses                        0                       # DTB accesses
system.cpu.itb.data_acv                             0                       # DTB access violations
system.cpu.itb.data_hits                            0                       # DTB hits
system.cpu.itb.data_misses                          0                       # DTB misses
system.cpu.itb.fetch_accesses                 1025776                       # ITB accesses
system.cpu.itb.fetch_acv                          727                       # ITB acv
system.cpu.itb.fetch_hits                     1018559                       # ITB hits
system.cpu.itb.fetch_misses                      7217                       # ITB misses
system.cpu.itb.read_accesses                        0                       # DTB read accesses
system.cpu.itb.read_acv                             0                       # DTB read access violations
system.cpu.itb.read_hits                            0                       # DTB read hits
system.cpu.itb.read_misses                          0                       # DTB read misses
system.cpu.itb.write_accesses                       0                       # DTB write accesses
system.cpu.itb.write_acv                            0                       # DTB write access violations
system.cpu.itb.write_hits                           0                       # DTB write hits
system.cpu.itb.write_misses                         0                       # DTB write misses
system.cpu.kern.callpal::swpctx                   574      9.46%      9.46% # number of callpals executed
system.cpu.kern.callpal::tbi                       25      0.41%      9.88% # number of callpals executed
system.cpu.kern.callpal::swpipl                  4202     69.28%     79.16% # number of callpals executed
system.cpu.kern.callpal::rdps                      48      0.79%     79.95% # number of callpals executed
system.cpu.kern.callpal::wrusp                      4      0.07%     80.02% # number of callpals executed
system.cpu.kern.callpal::rdusp                      3      0.05%     80.07% # number of callpals executed
system.cpu.kern.callpal::rti                      896     14.77%     94.84% # number of callpals executed
system.cpu.kern.callpal::callsys                  235      3.87%     98.71% # number of callpals executed
system.cpu.kern.callpal::imb                       78      1.29%    100.00% # number of callpals executed
system.cpu.kern.callpal::total                   6065                       # number of callpals executed
system.cpu.kern.inst.arm                            0                       # number of arm instructions executed
system.cpu.kern.inst.hwrei                      14408                       # number of hwrei instructions executed
system.cpu.kern.inst.quiesce                        9                       # number of quiesce instructions executed
system.cpu.kern.ipl_count::0                     2426     47.43%     47.43% # number of times we switched to this ipl
system.cpu.kern.ipl_count::21                       5      0.10%     47.53% # number of times we switched to this ipl
system.cpu.kern.ipl_count::22                      12      0.23%     47.76% # number of times we switched to this ipl
system.cpu.kern.ipl_count::31                    2672     52.24%    100.00% # number of times we switched to this ipl
system.cpu.kern.ipl_count::total                 5115                       # number of times we switched to this ipl
system.cpu.kern.ipl_good::0                      2413     49.82%     49.82% # number of times we switched to this ipl from a different ipl
system.cpu.kern.ipl_good::21                        5      0.10%     49.93% # number of times we switched to this ipl from a different ipl
system.cpu.kern.ipl_good::22                       12      0.25%     50.18% # number of times we switched to this ipl from a different ipl
system.cpu.kern.ipl_good::31                     2413     49.82%    100.00% # number of times we switched to this ipl from a different ipl
system.cpu.kern.ipl_good::total                  4843                       # number of times we switched to this ipl from a different ipl
system.cpu.kern.ipl_ticks::0              11067507500     92.34%     92.34% # number of cycles we spent at this ipl
system.cpu.kern.ipl_ticks::21                 9029500      0.08%     92.42% # number of cycles we spent at this ipl
system.cpu.kern.ipl_ticks::22                17482000      0.15%     92.56% # number of cycles we spent at this ipl
system.cpu.kern.ipl_ticks::31               891235000      7.44%    100.00% # number of cycles we spent at this ipl
system.cpu.kern.ipl_ticks::total          11985254000                       # number of cycles we spent at this ipl
system.cpu.kern.ipl_used::0                  0.994641                       # fraction of swpipl calls that actually changed the ipl
system.cpu.kern.ipl_used::21                        1                       # fraction of swpipl calls that actually changed the ipl
system.cpu.kern.ipl_used::22                        1                       # fraction of swpipl calls that actually changed the ipl
system.cpu.kern.ipl_used::31                 0.903069                       # fraction of swpipl calls that actually changed the ipl
system.cpu.kern.ipl_used::total              0.946823                       # fraction of swpipl calls that actually changed the ipl
system.cpu.kern.mode_good::kernel                 869                      
system.cpu.kern.mode_good::user                   869                      
system.cpu.kern.mode_good::idle                     0                      
system.cpu.kern.mode_switch::kernel              1470                       # number of protection mode switches
system.cpu.kern.mode_switch::user                 869                       # number of protection mode switches
system.cpu.kern.mode_switch::idle                   0                       # number of protection mode switches
system.cpu.kern.mode_switch_good::kernel     0.591156                       # fraction of useful protection mode switches
system.cpu.kern.mode_switch_good::user              1                       # fraction of useful protection mode switches
system.cpu.kern.mode_switch_good::idle            nan                       # fraction of useful protection mode switches
system.cpu.kern.mode_switch_good::total      0.743053                       # fraction of useful protection mode switches
system.cpu.kern.mode_ticks::kernel         8067828000     67.31%     67.31% # number of ticks spent at the given mode
system.cpu.kern.mode_ticks::user           3917426000     32.69%    100.00% # number of ticks spent at the given mode
system.cpu.kern.mode_ticks::idle                    0      0.00%    100.00% # number of ticks spent at the given mode
system.cpu.kern.swap_context                      574                       # number of times the context was actually changed
system.cpu.numCycles                         23948147                       # number of cpu cycles simulated
system.cpu.numFetchSuspends                         9                       # Number of times Execute suspended instruction fetching
system.cpu.numWorkItemsCompleted                    0                       # number of work items this cpu completed
system.cpu.numWorkItemsStarted                      0                       # number of work items this cpu started
system.cpu.op_class_0::No_OpClass               85386      2.04%      2.04% # Class of committed instruction
system.cpu.op_class_0::IntAlu                 2540054     60.57%     62.61% # Class of committed instruction
system.cpu.op_class_0::IntMult                   3673      0.09%     62.70% # Class of committed instruction
system.cpu.op_class_0::IntDiv                       0      0.00%     62.70% # Class of committed instruction
system.cpu.op_class_0::FloatAdd                  8286      0.20%     62.89% # Class of committed instruction
system.cpu.op_class_0::FloatCmp                     0      0.00%     62.89% # Class of committed instruction
system.cpu.op_class_0::FloatCvt                     0      0.00%     62.89% # Class of committed instruction
system.cpu.op_class_0::FloatMult                    0      0.00%     62.89% # Class of committed instruction
system.cpu.op_class_0::FloatMultAcc                 0      0.00%     62.89% # Class of committed instruction
system.cpu.op_class_0::FloatDiv                  1593      0.04%     62.93% # Class of committed instruction
system.cpu.op_class_0::FloatMisc                    0      0.00%     62.93% # Class of committed instruction
system.cpu.op_class_0::FloatSqrt                    0      0.00%     62.93% # Class of committed instruction
system.cpu.op_class_0::SimdAdd                      0      0.00%     62.93% # Class of committed instruction
system.cpu.op_class_0::SimdAddAcc                   0      0.00%     62.93% # Class of committed instruction
system.cpu.op_class_0::SimdAlu                      0      0.00%     62.93% # Class of committed instruction
system.cpu.op_class_0::SimdCmp                      0      0.00%     62.93% # Class of committed instruction
system.cpu.op_class_0::SimdCvt                      0      0.00%     62.93% # Class of committed instruction
system.cpu.op_class_0::SimdMisc                     0      0.00%     62.93% # Class of committed instruction
system.cpu.op_class_0::SimdMult                     0      0.00%     62.93% # Class of committed instruction
system.cpu.op_class_0::SimdMultAcc                  0      0.00%     62.93% # Class of committed instruction
system.cpu.op_class_0::SimdShift                    0      0.00%     62.93% # Class of committed instruction
system.cpu.op_class_0::SimdShiftAcc                 0      0.00%     62.93% # Class of committed instruction
system.cpu.op_class_0::SimdDiv                      0      0.00%     62.93% # Class of committed instruction
system.cpu.op_class_0::SimdSqrt                     0      0.00%     62.93% # Class of committed instruction
system.cpu.op_class_0::SimdFloatAdd                 0      0.00%     62.93% # Class of committed instruction
system.cpu.op_class_0::SimdFloatAlu                 0      0.00%     62.93% # Class of committed instruction
system.cpu.op_class_0::SimdFloatCmp                 0      0.00%     62.93% # Class of committed instruction
system.cpu.op_class_0::SimdFloatCvt                 0      0.00%     62.93% # Class of committed instruction
system.cpu.op_class_0::SimdFloatDiv                 0      0.00%     62.93% # Class of committed instruction
system.cpu.op_class_0::SimdFloatMisc                0      0.00%     62.93% # Class of committed instruction
system.cpu.op_class_0::SimdFloatMult                0      0.00%     62.93% # Class of committed instruction
system.cpu.op_class_0::SimdFloatMultAcc             0      0.00%     62.93% # Class of committed instruction
system.cpu.op_class_0::SimdFloatSqrt                0      0.00%     62.93% # Class of committed instruction
system.cpu.op_class_0::SimdReduceAdd                0      0.00%     62.93% # Class of committed instruction
system.cpu.op_class_0::SimdReduceAlu                0      0.00%     62.93% # Class of committed instruction
system.cpu.op_class_0::SimdReduceCmp                0      0.00%     62.93% # Class of committed instruction
system.cpu.op_class_0::SimdFloatReduceAdd            0      0.00%     62.93% # Class of committed instruction
system.cpu.op_class_0::SimdFloatReduceCmp            0      0.00%     62.93% # Class of committed instruction
system.cpu.op_class_0::SimdAes                      0      0.00%     62.93% # Class of committed instruction
system.cpu.op_class_0::SimdAesMix                   0      0.00%     62.93% # Class of committed instruction
system.cpu.op_class_0::SimdSha1Hash                 0      0.00%     62.93% # Class of committed instruction
system.cpu.op_class_0::SimdSha1Hash2                0      0.00%     62.93% # Class of committed instruction
system.cpu.op_class_0::SimdSha256Hash               0      0.00%     62.93% # Class of committed instruction
system.cpu.op_class_0::SimdSha256Hash2              0      0.00%     62.93% # Class of committed instruction
system.cpu.op_class_0::SimdShaSigma2                0      0.00%     62.93% # Class of committed instruction
system.cpu.op_class_0::SimdShaSigma3                0      0.00%     62.93% # Class of committed instruction
system.cpu.op_class_0::SimdPredAlu                  0      0.00%     62.93% # Class of committed instruction
system.cpu.op_class_0::MemRead                 838715     20.00%     82.93% # Class of committed instruction
system.cpu.op_class_0::MemWrite                592189     14.12%     97.05% # Class of committed instruction
system.cpu.op_class_0::FloatMemRead              9988      0.24%     97.29% # Class of committed instruction
system.cpu.op_class_0::FloatMemWrite             8788      0.21%     97.50% # Class of committed instruction
system.cpu.op_class_0::IprAccess               104779      2.50%    100.00% # Class of committed instruction
system.cpu.op_class_0::InstPrefetch                 0      0.00%    100.00% # Class of committed instruction
system.cpu.op_class_0::total                  4193451                       # Class of committed instruction
system.cpu.quiesceCycles                        13596                       # Total number of cycles that CPU has spent quiesced or waiting for an interrupt
system.cpu.tickCycles                         7173632                       # Number of cycles that the object actually ticked
system.disk0.dma_read_bytes                         0                       # Number of bytes transfered via DMA reads (not PRD).
system.disk0.dma_read_full_pages                    0                       # Number of full page size DMA reads (not PRD).
system.disk0.dma_read_txs                           0                       # Number of DMA read transactions (not PRD).
system.disk0.dma_write_bytes                    12288                       # Number of bytes transfered via DMA writes.
system.disk0.dma_write_full_pages                   0                       # Number of full page size DMA writes.
system.disk0.dma_write_txs                          3                       # Number of DMA write transactions.
system.disk2.dma_read_bytes                         0                       # Number of bytes transfered via DMA reads (not PRD).
system.disk2.dma_read_full_pages                    0                       # Number of full page size DMA reads (not PRD).
system.disk2.dma_read_txs                           0                       # Number of DMA read transactions (not PRD).
system.disk2.dma_write_bytes                        0                       # Number of bytes transfered via DMA writes.
system.disk2.dma_write_full_pages                   0                       # Number of full page size DMA writes.
system.disk2.dma_write_txs                          0                       # Number of DMA write transactions.
system.membus.snoop_filter.hit_multi_requests          436                       # Number of requests hitting in the snoop filter with multiple (>1) holders of the requested data.
system.membus.snoop_filter.hit_multi_snoops            0                       # Number of snoops hitting in the snoop filter with multiple (>1) holders of the requested data.
system.membus.snoop_filter.hit_single_requests       156490                       # Number of requests hitting in the snoop filter with a single holder of the requested data.
system.membus.snoop_filter.hit_single_snoops            0                       # Number of snoops hitting in the snoop filter with a single holder of the requested data.
system.membus.snoop_filter.tot_requests        314585                       # Total number of requests made to the snoop filter.
system.membus.snoop_filter.tot_snoops               0                       # Total number of snoops made to the snoop filter.
system.tsunami.ethernet.coalescedRxDesc           nan                       # average number of RxDesc's coalesced into each post
system.tsunami.ethernet.coalescedRxIdle           nan                       # average number of RxIdle's coalesced into each post
system.tsunami.ethernet.coalescedRxOk             nan                       # average number of RxOk's coalesced into each post
system.tsunami.ethernet.coalescedRxOrn            nan                       # average number of RxOrn's coalesced into each post
system.tsunami.ethernet.coalescedSwi              nan                       # average number of Swi's coalesced into each post
system.tsunami.ethernet.coalescedTotal            nan                       # average number of interrupts coalesced into each post
system.tsunami.ethernet.coalescedTxDesc           nan                       # average number of TxDesc's coalesced into each post
system.tsunami.ethernet.coalescedTxIdle           nan                       # average number of TxIdle's coalesced into each post
system.tsunami.ethernet.coalescedTxOk             nan                       # average number of TxOk's coalesced into each post
system.tsunami.ethernet.descDMAReads                0                       # Number of descriptors the device read w/ DMA
system.tsunami.ethernet.descDMAWrites               0                       # Number of descriptors the device wrote w/ DMA
system.tsunami.ethernet.descDmaReadBytes            0                       # number of descriptor bytes read w/ DMA
system.tsunami.ethernet.descDmaWriteBytes            0                       # number of descriptor bytes write w/ DMA
system.tsunami.ethernet.droppedPackets              0                       # number of packets dropped
system.tsunami.ethernet.postedInterrupts            0                       # number of posts to CPU
system.tsunami.ethernet.postedRxDesc                0                       # number of RxDesc interrupts posted to CPU
system.tsunami.ethernet.postedRxIdle                0                       # number of rxIdle interrupts posted to CPU
system.tsunami.ethernet.postedRxOk                  0                       # number of RxOk interrupts posted to CPU
system.tsunami.ethernet.postedRxOrn                 0                       # number of RxOrn posted to CPU
system.tsunami.ethernet.postedSwi                   0                       # number of software interrupts posted to CPU
system.tsunami.ethernet.postedTxDesc                0                       # number of TxDesc interrupts posted to CPU
system.tsunami.ethernet.postedTxIdle                0                       # number of TxIdle interrupts posted to CPU
system.tsunami.ethernet.postedTxOk                  0                       # number of TxOk interrupts posted to CPU
system.tsunami.ethernet.totalRxDesc                 0                       # total number of RxDesc written to ISR
system.tsunami.ethernet.totalRxIdle                 0                       # total number of RxIdle written to ISR
system.tsunami.ethernet.totalRxOk                   0                       # total number of RxOk written to ISR
system.tsunami.ethernet.totalRxOrn                  0                       # total number of RxOrn written to ISR
system.tsunami.ethernet.totalSwi                    0                       # total number of Swi written to ISR
system.tsunami.ethernet.totalTxDesc                 0                       # total number of TxDesc written to ISR
system.tsunami.ethernet.totalTxIdle                 0                       # total number of TxIdle written to ISR
system.tsunami.ethernet.totalTxOk                   0                       # total number of TxOk written to ISR
system.bridge.pwrStateResidencyTicks::UNDEFINED 2541990716500                       # Cumulative time (in ticks) in various power states
system.voltage_domain.voltage                       1                       # Voltage in Volts
system.iocache.pwrStateResidencyTicks::UNDEFINED 2541990716500                       # Cumulative time (in ticks) in various power states
system.iocache.demand_misses::.tsunami.ide          195                       # number of demand (read+write) misses
system.iocache.demand_misses::total               195                       # number of demand (read+write) misses
system.iocache.overall_misses::.tsunami.ide          195                       # number of overall misses
system.iocache.overall_misses::total              195                       # number of overall misses
system.iocache.demand_miss_latency::.tsunami.ide     22786457                       # number of demand (read+write) miss cycles
system.iocache.demand_miss_latency::total     22786457                       # number of demand (read+write) miss cycles
system.iocache.overall_miss_latency::.tsunami.ide     22786457                       # number of overall miss cycles
system.iocache.overall_miss_latency::total     22786457                       # number of overall miss cycles
system.iocache.demand_accesses::.tsunami.ide          195                       # number of demand (read+write) accesses
system.iocache.demand_accesses::total             195                       # number of demand (read+write) accesses
system.iocache.overall_accesses::.tsunami.ide          195                       # number of overall (read+write) accesses
system.iocache.overall_accesses::total            195                       # number of overall (read+write) accesses
system.iocache.demand_miss_rate::.tsunami.ide            1                       # miss rate for demand accesses
system.iocache.demand_miss_rate::total              1                       # miss rate for demand accesses
system.iocache.overall_miss_rate::.tsunami.ide            1                       # miss rate for overall accesses
system.iocache.overall_miss_rate::total             1                       # miss rate for overall accesses
system.iocache.demand_avg_miss_latency::.tsunami.ide 116853.625641                       # average overall miss latency
system.iocache.demand_avg_miss_latency::total 116853.625641                       # average overall miss latency
system.iocache.overall_avg_miss_latency::.tsunami.ide 116853.625641                       # average overall miss latency
system.iocache.overall_avg_miss_latency::total 116853.625641                       # average overall miss latency
system.iocache.blocked_cycles::no_mshrs             0                       # number of cycles access was blocked
system.iocache.blocked_cycles::no_targets            0                       # number of cycles access was blocked
system.iocache.blocked::no_mshrs                    0                       # number of cycles access was blocked
system.iocache.blocked::no_targets                  0                       # number of cycles access was blocked
system.iocache.avg_blocked_cycles::no_mshrs          nan                       # average number of cycles each access was blocked
system.iocache.avg_blocked_cycles::no_targets          nan                       # average number of cycles each access was blocked
system.iocache.writebacks::.writebacks            176                       # number of writebacks
system.iocache.writebacks::total                  176                       # number of writebacks
system.iocache.demand_mshr_misses::.tsunami.ide          195                       # number of demand (read+write) MSHR misses
system.iocache.demand_mshr_misses::total          195                       # number of demand (read+write) MSHR misses
system.iocache.overall_mshr_misses::.tsunami.ide          195                       # number of overall MSHR misses
system.iocache.overall_mshr_misses::total          195                       # number of overall MSHR misses
system.iocache.demand_mshr_miss_latency::.tsunami.ide     13022492                       # number of demand (read+write) MSHR miss cycles
system.iocache.demand_mshr_miss_latency::total     13022492                       # number of demand (read+write) MSHR miss cycles
system.iocache.overall_mshr_miss_latency::.tsunami.ide     13022492                       # number of overall MSHR miss cycles
system.iocache.overall_mshr_miss_latency::total     13022492                       # number of overall MSHR miss cycles
system.iocache.demand_mshr_miss_rate::.tsunami.ide            1                       # mshr miss rate for demand accesses
system.iocache.demand_mshr_miss_rate::total            1                       # mshr miss rate for demand accesses
system.iocache.overall_mshr_miss_rate::.tsunami.ide            1                       # mshr miss rate for overall accesses
system.iocache.overall_mshr_miss_rate::total            1                       # mshr miss rate for overall accesses
system.iocache.demand_avg_mshr_miss_latency::.tsunami.ide 66782.010256                       # average overall mshr miss latency
system.iocache.demand_avg_mshr_miss_latency::total 66782.010256                       # average overall mshr miss latency
system.iocache.overall_avg_mshr_miss_latency::.tsunami.ide 66782.010256                       # average overall mshr miss latency
system.iocache.overall_avg_mshr_miss_latency::total 66782.010256                       # average overall mshr miss latency
system.iocache.replacements                       179                       # number of replacements
system.iocache.ReadReq_misses::.tsunami.ide            3                       # number of ReadReq misses
system.iocache.ReadReq_misses::total                3                       # number of ReadReq misses
system.iocache.ReadReq_miss_latency::.tsunami.ide       349497                       # number of ReadReq miss cycles
system.iocache.ReadReq_miss_latency::total       349497                       # number of ReadReq miss cycles
system.iocache.ReadReq_accesses::.tsunami.ide            3                       # number of ReadReq accesses(hits+misses)
system.iocache.ReadReq_accesses::total              3                       # number of ReadReq accesses(hits+misses)
system.iocache.ReadReq_miss_rate::.tsunami.ide            1                       # miss rate for ReadReq accesses
system.iocache.ReadReq_miss_rate::total             1                       # miss rate for ReadReq accesses
system.iocache.ReadReq_avg_miss_latency::.tsunami.ide       116499                       # average ReadReq miss latency
system.iocache.ReadReq_avg_miss_latency::total       116499                       # average ReadReq miss latency
system.iocache.ReadReq_mshr_misses::.tsunami.ide            3                       # number of ReadReq MSHR misses
system.iocache.ReadReq_mshr_misses::total            3                       # number of ReadReq MSHR misses
system.iocache.ReadReq_mshr_miss_latency::.tsunami.ide       199497                       # number of ReadReq MSHR miss cycles
system.iocache.ReadReq_mshr_miss_latency::total       199497                       # number of ReadReq MSHR miss cycles
system.iocache.ReadReq_mshr_miss_rate::.tsunami.ide            1                       # mshr miss rate for ReadReq accesses
system.iocache.ReadReq_mshr_miss_rate::total            1                       # mshr miss rate for ReadReq accesses
system.iocache.ReadReq_avg_mshr_miss_latency::.tsunami.ide        66499                       # average ReadReq mshr miss latency
system.iocache.ReadReq_avg_mshr_miss_latency::total        66499                       # average ReadReq mshr miss latency
system.iocache.WriteLineReq_misses::.tsunami.ide          192                       # number of WriteLineReq misses
system.iocache.WriteLineReq_misses::total          192                       # number of WriteLineReq misses
system.iocache.WriteLineReq_miss_latency::.tsunami.ide     22436960                       # number of WriteLineReq miss cycles
system.iocache.WriteLineReq_miss_latency::total     22436960                       # number of WriteLineReq miss cycles
system.iocache.WriteLineReq_accesses::.tsunami.ide          192                       # number of WriteLineReq accesses(hits+misses)
system.iocache.WriteLineReq_accesses::total          192                       # number of WriteLineReq accesses(hits+misses)
system.iocache.WriteLineReq_miss_rate::.tsunami.ide            1                       # miss rate for WriteLineReq accesses
system.iocache.WriteLineReq_miss_rate::total            1                       # miss rate for WriteLineReq accesses
system.iocache.WriteLineReq_avg_miss_latency::.tsunami.ide 116859.166667                       # average WriteLineReq miss latency
system.iocache.WriteLineReq_avg_miss_latency::total 116859.166667                       # average WriteLineReq miss latency
system.iocache.WriteLineReq_mshr_misses::.tsunami.ide          192                       # number of WriteLineReq MSHR misses
system.iocache.WriteLineReq_mshr_misses::total          192                       # number of WriteLineReq MSHR misses
system.iocache.WriteLineReq_mshr_miss_latency::.tsunami.ide     12822995                       # number of WriteLineReq MSHR miss cycles
system.iocache.WriteLineReq_mshr_miss_latency::total     12822995                       # number of WriteLineReq MSHR miss cycles
system.iocache.WriteLineReq_mshr_miss_rate::.tsunami.ide            1                       # mshr miss rate for WriteLineReq accesses
system.iocache.WriteLineReq_mshr_miss_rate::total            1                       # mshr miss rate for WriteLineReq accesses
system.iocache.WriteLineReq_avg_mshr_miss_latency::.tsunami.ide 66786.432292                       # average WriteLineReq mshr miss latency
system.iocache.WriteLineReq_avg_mshr_miss_latency::total 66786.432292                       # average WriteLineReq mshr miss latency
system.iocache.tags.pwrStateResidencyTicks::UNDEFINED 2541990716500                       # Cumulative time (in ticks) in various power states
system.iocache.tags.tagsinuse                3.274195                       # Cycle average of tags in use
system.iocache.tags.total_refs                    179                       # Total number of references to valid blocks.
system.iocache.tags.sampled_refs                  179                       # Sample count of references to valid blocks.
system.iocache.tags.avg_refs                        1                       # Average number of references to valid blocks.
system.iocache.tags.warmup_cycle         2539537907000                       # Cycle when the warmup percentage was hit.
system.iocache.tags.occ_blocks::.tsunami.ide     3.274195                       # Average occupied blocks per requestor
system.iocache.tags.occ_percent::.tsunami.ide     0.204637                       # Average percentage of cache occupancy
system.iocache.tags.occ_percent::total       0.204637                       # Average percentage of cache occupancy
system.iocache.tags.occ_task_id_blocks::1023           16                       # Occupied blocks per task id
system.iocache.tags.age_task_id_blocks_1023::3           16                       # Occupied blocks per task id
system.iocache.tags.occ_task_id_percent::1023            1                       # Percentage of cache occupancy per task id
system.iocache.tags.tag_accesses                 1755                       # Number of tag accesses
system.iocache.tags.data_accesses                1755                       # Number of data accesses
system.membus.pwrStateResidencyTicks::UNDEFINED 2541990716500                       # Cumulative time (in ticks) in various power states
system.membus.trans_dist::ReadReq                 108                       # Transaction distribution
system.membus.trans_dist::ReadResp             129046                       # Transaction distribution
system.membus.trans_dist::WriteReq                 99                       # Transaction distribution
system.membus.trans_dist::WriteResp                99                       # Transaction distribution
system.membus.trans_dist::WritebackDirty        34848                       # Transaction distribution
system.membus.trans_dist::WritebackClean        87426                       # Transaction distribution
system.membus.trans_dist::CleanEvict            34195                       # Transaction distribution
system.membus.trans_dist::UpgradeReq               15                       # Transaction distribution
system.membus.trans_dist::ReadExReq             28969                       # Transaction distribution
system.membus.trans_dist::ReadExResp            28969                       # Transaction distribution
system.membus.trans_dist::ReadCleanReq          88016                       # Transaction distribution
system.membus.trans_dist::ReadSharedReq         40924                       # Transaction distribution
system.membus.trans_dist::BadAddressError            2                       # Transaction distribution
system.membus.trans_dist::InvalidateReq           192                       # Transaction distribution
system.membus.pkt_count_system.iocache.mem_side::system.mem_ctrls.port          374                       # Packet count per connected master and slave (bytes)
system.membus.pkt_count_system.iocache.mem_side::total          374                       # Packet count per connected master and slave (bytes)
system.membus.pkt_count_system.cpu.icache.mem_side::system.mem_ctrls.port       263397                       # Packet count per connected master and slave (bytes)
system.membus.pkt_count_system.cpu.icache.mem_side::total       263397                       # Packet count per connected master and slave (bytes)
system.membus.pkt_count_system.cpu.dcache.mem_side::system.bridge.slave          414                       # Packet count per connected master and slave (bytes)
system.membus.pkt_count_system.cpu.dcache.mem_side::system.mem_ctrls.port       208655                       # Packet count per connected master and slave (bytes)
system.membus.pkt_count_system.cpu.dcache.mem_side::system.membus.badaddr_responder.pio            4                       # Packet count per connected master and slave (bytes)
system.membus.pkt_count_system.cpu.dcache.mem_side::total       209073                       # Packet count per connected master and slave (bytes)
system.membus.pkt_count::total                 472844                       # Packet count per connected master and slave (bytes)
system.membus.pkt_size_system.iocache.mem_side::system.mem_ctrls.port        11264                       # Cumulative packet size per connected master and slave (bytes)
system.membus.pkt_size_system.iocache.mem_side::total        11264                       # Cumulative packet size per connected master and slave (bytes)
system.membus.pkt_size_system.cpu.icache.mem_side::system.mem_ctrls.port     11224384                       # Cumulative packet size per connected master and slave (bytes)
system.membus.pkt_size_system.cpu.icache.mem_side::total     11224384                       # Cumulative packet size per connected master and slave (bytes)
system.membus.pkt_size_system.cpu.dcache.mem_side::system.bridge.slave          433                       # Cumulative packet size per connected master and slave (bytes)
system.membus.pkt_size_system.cpu.dcache.mem_side::system.mem_ctrls.port      6691840                       # Cumulative packet size per connected master and slave (bytes)
system.membus.pkt_size_system.cpu.dcache.mem_side::total      6692273                       # Cumulative packet size per connected master and slave (bytes)
system.membus.pkt_size::total                17927921                       # Cumulative packet size per connected master and slave (bytes)
system.membus.snoops                               64                       # Total snoops (count)
system.membus.snoopTraffic                       4096                       # Total snoop traffic (bytes)
system.membus.snoop_fanout::samples            158323                       # Request fanout histogram
system.membus.snoop_fanout::mean             0.002760                       # Request fanout histogram
system.membus.snoop_fanout::stdev            0.052465                       # Request fanout histogram
system.membus.snoop_fanout::underflows              0      0.00%      0.00% # Request fanout histogram
system.membus.snoop_fanout::0                  157886     99.72%     99.72% # Request fanout histogram
system.membus.snoop_fanout::1                     437      0.28%    100.00% # Request fanout histogram
system.membus.snoop_fanout::2                       0      0.00%    100.00% # Request fanout histogram
system.membus.snoop_fanout::3                       0      0.00%    100.00% # Request fanout histogram
system.membus.snoop_fanout::overflows               0      0.00%    100.00% # Request fanout histogram
system.membus.snoop_fanout::min_value               0                       # Request fanout histogram
system.membus.snoop_fanout::max_value               1                       # Request fanout histogram
system.membus.snoop_fanout::total              158323                       # Request fanout histogram
system.membus.reqLayer0.occupancy              343500                       # Layer occupancy (ticks)
system.membus.reqLayer0.utilization               0.0                       # Layer utilization (%)
system.membus.reqLayer1.occupancy           826234538                       # Layer occupancy (ticks)
system.membus.reqLayer1.utilization               6.9                       # Layer utilization (%)
system.membus.reqLayer2.occupancy                3000                       # Layer occupancy (ticks)
system.membus.reqLayer2.utilization               0.0                       # Layer utilization (%)
system.membus.respLayer1.occupancy              17997                       # Layer occupancy (ticks)
system.membus.respLayer1.utilization              0.0                       # Layer utilization (%)
system.membus.respLayer3.occupancy          376011250                       # Layer occupancy (ticks)
system.membus.respLayer3.utilization              3.1                       # Layer utilization (%)
system.membus.badaddr_responder.pwrStateResidencyTicks::UNDEFINED 2541990716500                       # Cumulative time (in ticks) in various power states
system.membus.respLayer2.occupancy          466665249                       # Layer occupancy (ticks)
system.membus.respLayer2.utilization              3.9                       # Layer utilization (%)
system.clk_domain.clock                          1000                       # Clock period in ticks
system.tsunami.fake_uart1.pwrStateResidencyTicks::UNDEFINED 2541990716500                       # Cumulative time (in ticks) in various power states
system.tsunami.fake_uart2.pwrStateResidencyTicks::UNDEFINED 2541990716500                       # Cumulative time (in ticks) in various power states
system.tsunami.fake_uart3.pwrStateResidencyTicks::UNDEFINED 2541990716500                       # Cumulative time (in ticks) in various power states
system.tsunami.fake_uart4.pwrStateResidencyTicks::UNDEFINED 2541990716500                       # Cumulative time (in ticks) in various power states
system.tsunami.fake_ppc.pwrStateResidencyTicks::UNDEFINED 2541990716500                       # Cumulative time (in ticks) in various power states
system.tsunami.cchip.pwrStateResidencyTicks::UNDEFINED 2541990716500                       # Cumulative time (in ticks) in various power states
system.tsunami.io.pwrStateResidencyTicks::UNDEFINED 2541990716500                       # Cumulative time (in ticks) in various power states
system.tsunami.pchip.pwrStateResidencyTicks::UNDEFINED 2541990716500                       # Cumulative time (in ticks) in various power states
system.tsunami.fake_ata1.pwrStateResidencyTicks::UNDEFINED 2541990716500                       # Cumulative time (in ticks) in various power states
system.tsunami.fake_ata0.pwrStateResidencyTicks::UNDEFINED 2541990716500                       # Cumulative time (in ticks) in various power states
system.tsunami.backdoor.pwrStateResidencyTicks::UNDEFINED 2541990716500                       # Cumulative time (in ticks) in various power states
system.tsunami.fake_pnp_read3.pwrStateResidencyTicks::UNDEFINED 2541990716500                       # Cumulative time (in ticks) in various power states
system.tsunami.fake_pnp_read2.pwrStateResidencyTicks::UNDEFINED 2541990716500                       # Cumulative time (in ticks) in various power states
system.tsunami.fake_pnp_read1.pwrStateResidencyTicks::UNDEFINED 2541990716500                       # Cumulative time (in ticks) in various power states
system.tsunami.fake_pnp_read0.pwrStateResidencyTicks::UNDEFINED 2541990716500                       # Cumulative time (in ticks) in various power states
system.tsunami.fake_pnp_read7.pwrStateResidencyTicks::UNDEFINED 2541990716500                       # Cumulative time (in ticks) in various power states
system.tsunami.fake_pnp_read6.pwrStateResidencyTicks::UNDEFINED 2541990716500                       # Cumulative time (in ticks) in various power states
system.tsunami.fake_pnp_read5.pwrStateResidencyTicks::UNDEFINED 2541990716500                       # Cumulative time (in ticks) in various power states
system.tsunami.fake_pnp_read4.pwrStateResidencyTicks::UNDEFINED 2541990716500                       # Cumulative time (in ticks) in various power states
system.tsunami.fake_pnp_write.pwrStateResidencyTicks::UNDEFINED 2541990716500                       # Cumulative time (in ticks) in various power states
system.tsunami.fb.pwrStateResidencyTicks::UNDEFINED 2541990716500                       # Cumulative time (in ticks) in various power states
system.tsunami.fake_pnp_addr.pwrStateResidencyTicks::UNDEFINED 2541990716500                       # Cumulative time (in ticks) in various power states
system.tsunami.fake_OROM.pwrStateResidencyTicks::UNDEFINED 2541990716500                       # Cumulative time (in ticks) in various power states
system.tsunami.uart.pwrStateResidencyTicks::UNDEFINED 2541990716500                       # Cumulative time (in ticks) in various power states
system.tsunami.fake_sm_chip.pwrStateResidencyTicks::UNDEFINED 2541990716500                       # Cumulative time (in ticks) in various power states
system.tsunami.ethernet.pwrStateResidencyTicks::UNDEFINED 2541990716500                       # Cumulative time (in ticks) in various power states
system.tsunami.ide.pwrStateResidencyTicks::UNDEFINED 2541990716500                       # Cumulative time (in ticks) in various power states
system.cpu_voltage_domain.voltage                   1                       # Voltage in Volts
system.mem_ctrls.pwrStateResidencyTicks::UNDEFINED 2541990716500                       # Cumulative time (in ticks) in various power states
system.mem_ctrls.bytes_read::.cpu.inst        5629120                       # Number of bytes read from this memory
system.mem_ctrls.bytes_read::.cpu.data        4472832                       # Number of bytes read from this memory
system.mem_ctrls.bytes_read::total           10101952                       # Number of bytes read from this memory
system.mem_ctrls.bytes_inst_read::.cpu.inst      5629120                       # Number of instructions bytes read from this memory
system.mem_ctrls.bytes_inst_read::total       5629120                       # Number of instructions bytes read from this memory
system.mem_ctrls.bytes_written::.writebacks      2230272                       # Number of bytes written to this memory
system.mem_ctrls.bytes_written::total         2230272                       # Number of bytes written to this memory
system.mem_ctrls.num_reads::.cpu.inst           87955                       # Number of read requests responded to by this memory
system.mem_ctrls.num_reads::.cpu.data           69888                       # Number of read requests responded to by this memory
system.mem_ctrls.num_reads::total              157843                       # Number of read requests responded to by this memory
system.mem_ctrls.num_writes::.writebacks        34848                       # Number of write requests responded to by this memory
system.mem_ctrls.num_writes::total              34848                       # Number of write requests responded to by this memory
system.mem_ctrls.bw_read::.cpu.inst         469842282                       # Total read bandwidth from this memory (bytes/s)
system.mem_ctrls.bw_read::.cpu.data         373331105                       # Total read bandwidth from this memory (bytes/s)
system.mem_ctrls.bw_read::total             843173387                       # Total read bandwidth from this memory (bytes/s)
system.mem_ctrls.bw_inst_read::.cpu.inst    469842282                       # Instruction read bandwidth from this memory (bytes/s)
system.mem_ctrls.bw_inst_read::total        469842282                       # Instruction read bandwidth from this memory (bytes/s)
system.mem_ctrls.bw_write::.writebacks      186152735                       # Write bandwidth from this memory (bytes/s)
system.mem_ctrls.bw_write::total            186152735                       # Write bandwidth from this memory (bytes/s)
system.mem_ctrls.bw_total::.writebacks      186152735                       # Total bandwidth to/from this memory (bytes/s)
system.mem_ctrls.bw_total::.cpu.inst        469842282                       # Total bandwidth to/from this memory (bytes/s)
system.mem_ctrls.bw_total::.cpu.data        373331105                       # Total bandwidth to/from this memory (bytes/s)
system.mem_ctrls.bw_total::total           1029326122                       # Total bandwidth to/from this memory (bytes/s)
system.mem_ctrls.avgPriority_.writebacks::samples    119849.00                       # Average QoS priority value for accepted requests
system.mem_ctrls.avgPriority_.cpu.inst::samples     77968.00                       # Average QoS priority value for accepted requests
system.mem_ctrls.avgPriority_.cpu.data::samples     69381.00                       # Average QoS priority value for accepted requests
system.mem_ctrls.priorityMinLatency      0.000000018750                       # per QoS priority minimum request to response latency (s)
system.mem_ctrls.priorityMaxLatency      0.000190243750                       # per QoS priority maximum request to response latency (s)
system.mem_ctrls.numReadWriteTurnArounds         7374                       # Number of turnarounds from READ to WRITE
system.mem_ctrls.numWriteReadTurnArounds         7374                       # Number of turnarounds from WRITE to READ
system.mem_ctrls.numStayReadState              409023                       # Number of times bus staying in READ state
system.mem_ctrls.numStayWriteState             112522                       # Number of times bus staying in WRITE state
system.mem_ctrls.readReqs                      157843                       # Number of read requests accepted
system.mem_ctrls.writeReqs                     122057                       # Number of write requests accepted
system.mem_ctrls.readBursts                    157843                       # Number of DRAM read bursts, including those serviced by the write queue
system.mem_ctrls.writeBursts                   122057                       # Number of DRAM write bursts, including those merged in the write queue
system.mem_ctrls.servicedByWrQ                  10494                       # Number of DRAM read bursts serviced by the write queue
system.mem_ctrls.mergedWrBursts                  2208                       # Number of DRAM write bursts merged with an existing one
system.mem_ctrls.neitherReadNorWriteReqs            0                       # Number of requests that are neither read nor write
system.mem_ctrls.perBankRdBursts::0              8865                       # Per bank write bursts
system.mem_ctrls.perBankRdBursts::1              6716                       # Per bank write bursts
system.mem_ctrls.perBankRdBursts::2             10006                       # Per bank write bursts
system.mem_ctrls.perBankRdBursts::3              7130                       # Per bank write bursts
system.mem_ctrls.perBankRdBursts::4              8689                       # Per bank write bursts
system.mem_ctrls.perBankRdBursts::5             10056                       # Per bank write bursts
system.mem_ctrls.perBankRdBursts::6              8705                       # Per bank write bursts
system.mem_ctrls.perBankRdBursts::7              8690                       # Per bank write bursts
system.mem_ctrls.perBankRdBursts::8             11834                       # Per bank write bursts
system.mem_ctrls.perBankRdBursts::9              9281                       # Per bank write bursts
system.mem_ctrls.perBankRdBursts::10            10644                       # Per bank write bursts
system.mem_ctrls.perBankRdBursts::11            12052                       # Per bank write bursts
system.mem_ctrls.perBankRdBursts::12             8862                       # Per bank write bursts
system.mem_ctrls.perBankRdBursts::13            13506                       # Per bank write bursts
system.mem_ctrls.perBankRdBursts::14             5527                       # Per bank write bursts
system.mem_ctrls.perBankRdBursts::15             6786                       # Per bank write bursts
system.mem_ctrls.perBankWrBursts::0              7263                       # Per bank write bursts
system.mem_ctrls.perBankWrBursts::1              4537                       # Per bank write bursts
system.mem_ctrls.perBankWrBursts::2              8783                       # Per bank write bursts
system.mem_ctrls.perBankWrBursts::3              7955                       # Per bank write bursts
system.mem_ctrls.perBankWrBursts::4              7858                       # Per bank write bursts
system.mem_ctrls.perBankWrBursts::5              9871                       # Per bank write bursts
system.mem_ctrls.perBankWrBursts::6              7531                       # Per bank write bursts
system.mem_ctrls.perBankWrBursts::7              6880                       # Per bank write bursts
system.mem_ctrls.perBankWrBursts::8             10612                       # Per bank write bursts
system.mem_ctrls.perBankWrBursts::9              8399                       # Per bank write bursts
system.mem_ctrls.perBankWrBursts::10             7906                       # Per bank write bursts
system.mem_ctrls.perBankWrBursts::11             8055                       # Per bank write bursts
system.mem_ctrls.perBankWrBursts::12             5431                       # Per bank write bursts
system.mem_ctrls.perBankWrBursts::13             9908                       # Per bank write bursts
system.mem_ctrls.perBankWrBursts::14             3174                       # Per bank write bursts
system.mem_ctrls.perBankWrBursts::15             5660                       # Per bank write bursts
system.mem_ctrls.avgRdQLen                       1.09                       # Average read queue length when enqueuing
system.mem_ctrls.avgWrQLen                      25.73                       # Average write queue length when enqueuing
system.mem_ctrls.totQLat                   2020288750                       # Total ticks spent queuing
system.mem_ctrls.totBusLat                  736745000                       # Total ticks spent in databus transfers
system.mem_ctrls.totMemAccLat              4783082500                       # Total ticks spent from burst creation until serviced by the DRAM
system.mem_ctrls.avgQLat                     13710.91                       # Average queueing delay per DRAM burst
system.mem_ctrls.avgBusLat                    5000.00                       # Average bus latency per DRAM burst
system.mem_ctrls.avgMemAccLat                32460.91                       # Average memory access latency per DRAM burst
system.mem_ctrls.numRdRetry                         0                       # Number of times read queue was full causing retry
system.mem_ctrls.numWrRetry                         0                       # Number of times write queue was full causing retry
system.mem_ctrls.readRowHits                   104448                       # Number of row buffer hits during reads
system.mem_ctrls.writeRowHits                   80780                       # Number of row buffer hits during writes
system.mem_ctrls.readRowHitRate                 70.88                       # Row buffer hit rate for reads
system.mem_ctrls.writeRowHitRate                67.40                       # Row buffer hit rate for writes
system.mem_ctrls.readPktSize::0                     0                       # Read request sizes (log2)
system.mem_ctrls.readPktSize::1                     0                       # Read request sizes (log2)
system.mem_ctrls.readPktSize::2                     0                       # Read request sizes (log2)
system.mem_ctrls.readPktSize::3                     0                       # Read request sizes (log2)
system.mem_ctrls.readPktSize::4                     0                       # Read request sizes (log2)
system.mem_ctrls.readPktSize::5                     0                       # Read request sizes (log2)
system.mem_ctrls.readPktSize::6                157843                       # Read request sizes (log2)
system.mem_ctrls.writePktSize::0                    0                       # Write request sizes (log2)
system.mem_ctrls.writePktSize::1                    0                       # Write request sizes (log2)
system.mem_ctrls.writePktSize::2                    0                       # Write request sizes (log2)
system.mem_ctrls.writePktSize::3                    0                       # Write request sizes (log2)
system.mem_ctrls.writePktSize::4                    0                       # Write request sizes (log2)
system.mem_ctrls.writePktSize::5                    0                       # Write request sizes (log2)
system.mem_ctrls.writePktSize::6               122057                       # Write request sizes (log2)
system.mem_ctrls.rdQLenPdf::0                  134709                       # What read queue length does an incoming req see
system.mem_ctrls.rdQLenPdf::1                   12332                       # What read queue length does an incoming req see
system.mem_ctrls.rdQLenPdf::2                     308                       # What read queue length does an incoming req see
system.mem_ctrls.rdQLenPdf::3                       0                       # What read queue length does an incoming req see
system.mem_ctrls.rdQLenPdf::4                       0                       # What read queue length does an incoming req see
system.mem_ctrls.rdQLenPdf::5                       0                       # What read queue length does an incoming req see
system.mem_ctrls.rdQLenPdf::6                       0                       # What read queue length does an incoming req see
system.mem_ctrls.rdQLenPdf::7                       0                       # What read queue length does an incoming req see
system.mem_ctrls.rdQLenPdf::8                       0                       # What read queue length does an incoming req see
system.mem_ctrls.rdQLenPdf::9                       0                       # What read queue length does an incoming req see
system.mem_ctrls.rdQLenPdf::10                      0                       # What read queue length does an incoming req see
system.mem_ctrls.rdQLenPdf::11                      0                       # What read queue length does an incoming req see
system.mem_ctrls.rdQLenPdf::12                      0                       # What read queue length does an incoming req see
system.mem_ctrls.rdQLenPdf::13                      0                       # What read queue length does an incoming req see
system.mem_ctrls.rdQLenPdf::14                      0                       # What read queue length does an incoming req see
system.mem_ctrls.rdQLenPdf::15                      0                       # What read queue length does an incoming req see
system.mem_ctrls.rdQLenPdf::16                      0                       # What read queue length does an incoming req see
system.mem_ctrls.rdQLenPdf::17                      0                       # What read queue length does an incoming req see
system.mem_ctrls.rdQLenPdf::18                      0                       # What read queue length does an incoming req see
system.mem_ctrls.rdQLenPdf::19                      0                       # What read queue length does an incoming req see
system.mem_ctrls.rdQLenPdf::20                      0                       # What read queue length does an incoming req see
system.mem_ctrls.rdQLenPdf::21                      0                       # What read queue length does an incoming req see
system.mem_ctrls.rdQLenPdf::22                      0                       # What read queue length does an incoming req see
system.mem_ctrls.rdQLenPdf::23                      0                       # What read queue length does an incoming req see
system.mem_ctrls.rdQLenPdf::24                      0                       # What read queue length does an incoming req see
system.mem_ctrls.rdQLenPdf::25                      0                       # What read queue length does an incoming req see
system.mem_ctrls.rdQLenPdf::26                      0                       # What read queue length does an incoming req see
system.mem_ctrls.rdQLenPdf::27                      0                       # What read queue length does an incoming req see
system.mem_ctrls.rdQLenPdf::28                      0                       # What read queue length does an incoming req see
system.mem_ctrls.rdQLenPdf::29                      0                       # What read queue length does an incoming req see
system.mem_ctrls.rdQLenPdf::30                      0                       # What read queue length does an incoming req see
system.mem_ctrls.rdQLenPdf::31                      0                       # What read queue length does an incoming req see
system.mem_ctrls.wrQLenPdf::0                       1                       # What write queue length does an incoming req see
system.mem_ctrls.wrQLenPdf::1                       1                       # What write queue length does an incoming req see
system.mem_ctrls.wrQLenPdf::2                       1                       # What write queue length does an incoming req see
system.mem_ctrls.wrQLenPdf::3                       1                       # What write queue length does an incoming req see
system.mem_ctrls.wrQLenPdf::4                       1                       # What write queue length does an incoming req see
system.mem_ctrls.wrQLenPdf::5                       1                       # What write queue length does an incoming req see
system.mem_ctrls.wrQLenPdf::6                       1                       # What write queue length does an incoming req see
system.mem_ctrls.wrQLenPdf::7                       1                       # What write queue length does an incoming req see
system.mem_ctrls.wrQLenPdf::8                       1                       # What write queue length does an incoming req see
system.mem_ctrls.wrQLenPdf::9                       1                       # What write queue length does an incoming req see
system.mem_ctrls.wrQLenPdf::10                      1                       # What write queue length does an incoming req see
system.mem_ctrls.wrQLenPdf::11                      1                       # What write queue length does an incoming req see
system.mem_ctrls.wrQLenPdf::12                      1                       # What write queue length does an incoming req see
system.mem_ctrls.wrQLenPdf::13                      1                       # What write queue length does an incoming req see
system.mem_ctrls.wrQLenPdf::14                      1                       # What write queue length does an incoming req see
system.mem_ctrls.wrQLenPdf::15                    691                       # What write queue length does an incoming req see
system.mem_ctrls.wrQLenPdf::16                    789                       # What write queue length does an incoming req see
system.mem_ctrls.wrQLenPdf::17                   6791                       # What write queue length does an incoming req see
system.mem_ctrls.wrQLenPdf::18                   7400                       # What write queue length does an incoming req see
system.mem_ctrls.wrQLenPdf::19                   7504                       # What write queue length does an incoming req see
system.mem_ctrls.wrQLenPdf::20                   7456                       # What write queue length does an incoming req see
system.mem_ctrls.wrQLenPdf::21                   7446                       # What write queue length does an incoming req see
system.mem_ctrls.wrQLenPdf::22                   7545                       # What write queue length does an incoming req see
system.mem_ctrls.wrQLenPdf::23                   7447                       # What write queue length does an incoming req see
system.mem_ctrls.wrQLenPdf::24                   7460                       # What write queue length does an incoming req see
system.mem_ctrls.wrQLenPdf::25                   7417                       # What write queue length does an incoming req see
system.mem_ctrls.wrQLenPdf::26                   7468                       # What write queue length does an incoming req see
system.mem_ctrls.wrQLenPdf::27                   7423                       # What write queue length does an incoming req see
system.mem_ctrls.wrQLenPdf::28                   7440                       # What write queue length does an incoming req see
system.mem_ctrls.wrQLenPdf::29                   7406                       # What write queue length does an incoming req see
system.mem_ctrls.wrQLenPdf::30                   7385                       # What write queue length does an incoming req see
system.mem_ctrls.wrQLenPdf::31                   7380                       # What write queue length does an incoming req see
system.mem_ctrls.wrQLenPdf::32                   7382                       # What write queue length does an incoming req see
system.mem_ctrls.wrQLenPdf::33                      4                       # What write queue length does an incoming req see
system.mem_ctrls.wrQLenPdf::34                      0                       # What write queue length does an incoming req see
system.mem_ctrls.wrQLenPdf::35                      0                       # What write queue length does an incoming req see
system.mem_ctrls.wrQLenPdf::36                      0                       # What write queue length does an incoming req see
system.mem_ctrls.wrQLenPdf::37                      0                       # What write queue length does an incoming req see
system.mem_ctrls.wrQLenPdf::38                      0                       # What write queue length does an incoming req see
system.mem_ctrls.wrQLenPdf::39                      0                       # What write queue length does an incoming req see
system.mem_ctrls.wrQLenPdf::40                      0                       # What write queue length does an incoming req see
system.mem_ctrls.wrQLenPdf::41                      0                       # What write queue length does an incoming req see
system.mem_ctrls.wrQLenPdf::42                      0                       # What write queue length does an incoming req see
system.mem_ctrls.wrQLenPdf::43                      0                       # What write queue length does an incoming req see
system.mem_ctrls.wrQLenPdf::44                      0                       # What write queue length does an incoming req see
system.mem_ctrls.wrQLenPdf::45                      0                       # What write queue length does an incoming req see
system.mem_ctrls.wrQLenPdf::46                      0                       # What write queue length does an incoming req see
system.mem_ctrls.wrQLenPdf::47                      0                       # What write queue length does an incoming req see
system.mem_ctrls.wrQLenPdf::48                      0                       # What write queue length does an incoming req see
system.mem_ctrls.wrQLenPdf::49                      0                       # What write queue length does an incoming req see
system.mem_ctrls.wrQLenPdf::50                      0                       # What write queue length does an incoming req see
system.mem_ctrls.wrQLenPdf::51                      0                       # What write queue length does an incoming req see
system.mem_ctrls.wrQLenPdf::52                      0                       # What write queue length does an incoming req see
system.mem_ctrls.wrQLenPdf::53                      0                       # What write queue length does an incoming req see
system.mem_ctrls.wrQLenPdf::54                      0                       # What write queue length does an incoming req see
system.mem_ctrls.wrQLenPdf::55                      0                       # What write queue length does an incoming req see
system.mem_ctrls.wrQLenPdf::56                      0                       # What write queue length does an incoming req see
system.mem_ctrls.wrQLenPdf::57                      0                       # What write queue length does an incoming req see
system.mem_ctrls.wrQLenPdf::58                      0                       # What write queue length does an incoming req see
system.mem_ctrls.wrQLenPdf::59                      0                       # What write queue length does an incoming req see
system.mem_ctrls.wrQLenPdf::60                      0                       # What write queue length does an incoming req see
system.mem_ctrls.wrQLenPdf::61                      0                       # What write queue length does an incoming req see
system.mem_ctrls.wrQLenPdf::62                      0                       # What write queue length does an incoming req see
system.mem_ctrls.wrQLenPdf::63                      0                       # What write queue length does an incoming req see
system.mem_ctrls.bytesPerActivate::samples        81931                       # Bytes accessed per row activation
system.mem_ctrls.bytesPerActivate::mean    208.658701                       # Bytes accessed per row activation
system.mem_ctrls.bytesPerActivate::gmean   140.137859                       # Bytes accessed per row activation
system.mem_ctrls.bytesPerActivate::stdev   225.773621                       # Bytes accessed per row activation
system.mem_ctrls.bytesPerActivate::0-127        34720     42.38%     42.38% # Bytes accessed per row activation
system.mem_ctrls.bytesPerActivate::128-255        24438     29.83%     72.20% # Bytes accessed per row activation
system.mem_ctrls.bytesPerActivate::256-383         9923     12.11%     84.32% # Bytes accessed per row activation
system.mem_ctrls.bytesPerActivate::384-511         4603      5.62%     89.93% # Bytes accessed per row activation
system.mem_ctrls.bytesPerActivate::512-639         2400      2.93%     92.86% # Bytes accessed per row activation
system.mem_ctrls.bytesPerActivate::640-767         1464      1.79%     94.65% # Bytes accessed per row activation
system.mem_ctrls.bytesPerActivate::768-895          948      1.16%     95.81% # Bytes accessed per row activation
system.mem_ctrls.bytesPerActivate::896-1023          606      0.74%     96.55% # Bytes accessed per row activation
system.mem_ctrls.bytesPerActivate::1024-1151         2829      3.45%    100.00% # Bytes accessed per row activation
system.mem_ctrls.bytesPerActivate::total        81931                       # Bytes accessed per row activation
system.mem_ctrls.rdPerTurnAround::samples         7374                       # Reads before turning the bus around for writes
system.mem_ctrls.rdPerTurnAround::mean      19.981014                       # Reads before turning the bus around for writes
system.mem_ctrls.rdPerTurnAround::gmean     18.369232                       # Reads before turning the bus around for writes
system.mem_ctrls.rdPerTurnAround::stdev     12.724188                       # Reads before turning the bus around for writes
system.mem_ctrls.rdPerTurnAround::0-15           1329     18.02%     18.02% # Reads before turning the bus around for writes
system.mem_ctrls.rdPerTurnAround::16-31          5560     75.40%     93.42% # Reads before turning the bus around for writes
system.mem_ctrls.rdPerTurnAround::32-47           287      3.89%     97.31% # Reads before turning the bus around for writes
system.mem_ctrls.rdPerTurnAround::48-63            98      1.33%     98.64% # Reads before turning the bus around for writes
system.mem_ctrls.rdPerTurnAround::64-79            42      0.57%     99.21% # Reads before turning the bus around for writes
system.mem_ctrls.rdPerTurnAround::80-95            16      0.22%     99.43% # Reads before turning the bus around for writes
system.mem_ctrls.rdPerTurnAround::96-111           20      0.27%     99.70% # Reads before turning the bus around for writes
system.mem_ctrls.rdPerTurnAround::112-127            5      0.07%     99.77% # Reads before turning the bus around for writes
system.mem_ctrls.rdPerTurnAround::128-143            9      0.12%     99.89% # Reads before turning the bus around for writes
system.mem_ctrls.rdPerTurnAround::144-159            3      0.04%     99.93% # Reads before turning the bus around for writes
system.mem_ctrls.rdPerTurnAround::160-175            1      0.01%     99.95% # Reads before turning the bus around for writes
system.mem_ctrls.rdPerTurnAround::192-207            2      0.03%     99.97% # Reads before turning the bus around for writes
system.mem_ctrls.rdPerTurnAround::256-271            1      0.01%     99.99% # Reads before turning the bus around for writes
system.mem_ctrls.rdPerTurnAround::400-415            1      0.01%    100.00% # Reads before turning the bus around for writes
system.mem_ctrls.rdPerTurnAround::total          7374                       # Reads before turning the bus around for writes
system.mem_ctrls.wrPerTurnAround::samples         7374                       # Writes before turning the bus around for reads
system.mem_ctrls.wrPerTurnAround::mean      16.249390                       # Writes before turning the bus around for reads
system.mem_ctrls.wrPerTurnAround::gmean     16.233338                       # Writes before turning the bus around for reads
system.mem_ctrls.wrPerTurnAround::stdev      0.755142                       # Writes before turning the bus around for reads
system.mem_ctrls.wrPerTurnAround::16             6565     89.03%     89.03% # Writes before turning the bus around for reads
system.mem_ctrls.wrPerTurnAround::17               87      1.18%     90.21% # Writes before turning the bus around for reads
system.mem_ctrls.wrPerTurnAround::18              482      6.54%     96.75% # Writes before turning the bus around for reads
system.mem_ctrls.wrPerTurnAround::19              176      2.39%     99.13% # Writes before turning the bus around for reads
system.mem_ctrls.wrPerTurnAround::20               62      0.84%     99.97% # Writes before turning the bus around for reads
system.mem_ctrls.wrPerTurnAround::22                2      0.03%    100.00% # Writes before turning the bus around for reads
system.mem_ctrls.wrPerTurnAround::total          7374                       # Writes before turning the bus around for reads
system.mem_ctrls.bytesReadDRAM                9430336                       # Total number of bytes read from DRAM
system.mem_ctrls.bytesReadWrQ                  671616                       # Total number of bytes read from write queue
system.mem_ctrls.bytesWritten                 7668672                       # Total number of bytes written to DRAM
system.mem_ctrls.bytesReadSys                10101952                       # Total read bytes from the system interface side
system.mem_ctrls.bytesWrittenSys              7811648                       # Total written bytes from the system interface side
system.mem_ctrls.avgRdBW                       787.12                       # Average DRAM read bandwidth in MiByte/s
system.mem_ctrls.avgWrBW                       640.08                       # Average achieved write bandwidth in MiByte/s
system.mem_ctrls.avgRdBWSys                    843.17                       # Average system read bandwidth in MiByte/s
system.mem_ctrls.avgWrBWSys                    652.01                       # Average system write bandwidth in MiByte/s
system.mem_ctrls.peakBW                      12800.00                       # Theoretical peak bandwidth in MiByte/s
system.mem_ctrls.busUtil                        11.15                       # Data bus utilization in percentage
system.mem_ctrls.busUtilRead                     6.15                       # Data bus utilization in percentage for reads
system.mem_ctrls.busUtilWrite                    5.00                       # Data bus utilization in percentage for writes
system.mem_ctrls.totGap                   11980866500                       # Total gap between requests
system.mem_ctrls.avgGap                      42804.10                       # Average gap between requests
system.mem_ctrls.masterReadBytes::.cpu.inst      4989952                       # Per-master bytes read from memory
system.mem_ctrls.masterReadBytes::.cpu.data      4440384                       # Per-master bytes read from memory
system.mem_ctrls.masterWriteBytes::.writebacks      7668672                       # Per-master bytes write to memory
system.mem_ctrls.masterReadRate::.cpu.inst 416493240.913234055042                       # Per-master bytes read from memory rate (Bytes/sec)
system.mem_ctrls.masterReadRate::.cpu.data 370622788.166954278946                       # Per-master bytes read from memory rate (Bytes/sec)
[...]
system.cpu.icache.ReadReq_mshr_miss_latency::.cpu.inst  32822310000                       # number of ReadReq MSHR miss cycles
system.cpu.icache.ReadReq_mshr_miss_latency::total  32822310000                       # number of ReadReq MSHR miss cycles
system.cpu.icache.ReadReq_mshr_miss_rate::.cpu.inst     0.005165                       # mshr miss rate for ReadReq accesses
system.cpu.icache.ReadReq_mshr_miss_rate::total     0.005165                       # mshr miss rate for ReadReq accesses
system.cpu.icache.ReadReq_avg_mshr_miss_latency::.cpu.inst 59499.941991                       # average ReadReq mshr miss latency
system.cpu.icache.ReadReq_avg_mshr_miss_latency::total 59499.941991                       # average ReadReq mshr miss latency
system.cpu.icache.tags.pwrStateResidencyTicks::UNDEFINED 366256879500                       # Cumulative time (in ticks) in various power states
system.cpu.icache.tags.tagsinuse                  512                       # Cycle average of tags in use
system.cpu.icache.tags.total_refs           107033246                       # Total number of references to valid blocks.
system.cpu.icache.tags.sampled_refs            552149                       # Sample count of references to valid blocks.
system.cpu.icache.tags.avg_refs            193.848483                       # Average number of references to valid blocks.
system.cpu.icache.tags.warmup_cycle                 0                       # Cycle when the warmup percentage was hit.
system.cpu.icache.tags.occ_blocks::.cpu.inst          512                       # Average occupied blocks per requestor
system.cpu.icache.tags.occ_percent::.cpu.inst            1                       # Average percentage of cache occupancy
system.cpu.icache.tags.occ_percent::total            1                       # Average percentage of cache occupancy
system.cpu.icache.tags.occ_task_id_blocks::1024          512                       # Occupied blocks per task id
system.cpu.icache.tags.age_task_id_blocks_1024::1          184                       # Occupied blocks per task id
system.cpu.icache.tags.age_task_id_blocks_1024::2          117                       # Occupied blocks per task id
system.cpu.icache.tags.age_task_id_blocks_1024::3          149                       # Occupied blocks per task id
system.cpu.icache.tags.age_task_id_blocks_1024::4           62                       # Occupied blocks per task id
system.cpu.icache.tags.occ_task_id_percent::1024            1                       # Percentage of cache occupancy per task id
system.cpu.icache.tags.tag_accesses         214168063                       # Number of tag accesses
system.cpu.icache.tags.data_accesses        214168063                       # Number of data accesses
system.cpu.dcache.pwrStateResidencyTicks::UNDEFINED 366256879500                       # Cumulative time (in ticks) in various power states
system.cpu.dcache.demand_hits::.cpu.data    127093373                       # number of demand (read+write) hits
system.cpu.dcache.demand_hits::total        127093373                       # number of demand (read+write) hits
system.cpu.dcache.overall_hits::.cpu.data    127093373                       # number of overall hits
system.cpu.dcache.overall_hits::total       127093373                       # number of overall hits
system.cpu.dcache.demand_misses::.cpu.data      1786568                       # number of demand (read+write) misses
system.cpu.dcache.demand_misses::total        1786568                       # number of demand (read+write) misses
system.cpu.dcache.overall_misses::.cpu.data      1786568                       # number of overall misses
system.cpu.dcache.overall_misses::total       1786568                       # number of overall misses
system.cpu.dcache.demand_miss_latency::.cpu.data 109512021500                       # number of demand (read+write) miss cycles
system.cpu.dcache.demand_miss_latency::total 109512021500                       # number of demand (read+write) miss cycles
system.cpu.dcache.overall_miss_latency::.cpu.data 109512021500                       # number of overall miss cycles
system.cpu.dcache.overall_miss_latency::total 109512021500                       # number of overall miss cycles
system.cpu.dcache.demand_accesses::.cpu.data    128879941                       # number of demand (read+write) accesses
system.cpu.dcache.demand_accesses::total    128879941                       # number of demand (read+write) accesses
system.cpu.dcache.overall_accesses::.cpu.data    128879941                       # number of overall (read+write) accesses
system.cpu.dcache.overall_accesses::total    128879941                       # number of overall (read+write) accesses
system.cpu.dcache.demand_miss_rate::.cpu.data     0.013862                       # miss rate for demand accesses
system.cpu.dcache.demand_miss_rate::total     0.013862                       # miss rate for demand accesses
system.cpu.dcache.overall_miss_rate::.cpu.data     0.013862                       # miss rate for overall accesses
system.cpu.dcache.overall_miss_rate::total     0.013862                       # miss rate for overall accesses
system.cpu.dcache.demand_avg_miss_latency::.cpu.data 61297.426966                       # average overall miss latency
system.cpu.dcache.demand_avg_miss_latency::total 61297.426966                       # average overall miss latency
system.cpu.dcache.overall_avg_miss_latency::.cpu.data 61297.426966                       # average overall miss latency
system.cpu.dcache.overall_avg_miss_latency::total 61297.426966                       # average overall miss latency
system.cpu.dcache.blocked_cycles::no_mshrs            0                       # number of cycles access was blocked
system.cpu.dcache.blocked_cycles::no_targets            0                       # number of cycles access was blocked
system.cpu.dcache.blocked::no_mshrs                 0                       # number of cycles access was blocked
system.cpu.dcache.blocked::no_targets               0                       # number of cycles access was blocked
system.cpu.dcache.avg_blocked_cycles::no_mshrs          nan                       # average number of cycles each access was blocked
system.cpu.dcache.avg_blocked_cycles::no_targets          nan                       # average number of cycles each access was blocked
system.cpu.dcache.writebacks::.writebacks       750621                       # number of writebacks
system.cpu.dcache.writebacks::total            750621                       # number of writebacks
system.cpu.dcache.demand_mshr_hits::.cpu.data       564411                       # number of demand (read+write) MSHR hits
system.cpu.dcache.demand_mshr_hits::total       564411                       # number of demand (read+write) MSHR hits
system.cpu.dcache.overall_mshr_hits::.cpu.data       564411                       # number of overall MSHR hits
system.cpu.dcache.overall_mshr_hits::total       564411                       # number of overall MSHR hits
system.cpu.dcache.demand_mshr_misses::.cpu.data      1222157                       # number of demand (read+write) MSHR misses
system.cpu.dcache.demand_mshr_misses::total      1222157                       # number of demand (read+write) MSHR misses
system.cpu.dcache.overall_mshr_misses::.cpu.data      1222157                       # number of overall MSHR misses
system.cpu.dcache.overall_mshr_misses::total      1222157                       # number of overall MSHR misses
system.cpu.dcache.overall_mshr_uncacheable_misses::.cpu.data          375                       # number of overall MSHR uncacheable misses
system.cpu.dcache.overall_mshr_uncacheable_misses::total          375                       # number of overall MSHR uncacheable misses
system.cpu.dcache.demand_mshr_miss_latency::.cpu.data  73638724500                       # number of demand (read+write) MSHR miss cycles
system.cpu.dcache.demand_mshr_miss_latency::total  73638724500                       # number of demand (read+write) MSHR miss cycles
system.cpu.dcache.overall_mshr_miss_latency::.cpu.data  73638724500                       # number of overall MSHR miss cycles
system.cpu.dcache.overall_mshr_miss_latency::total  73638724500                       # number of overall MSHR miss cycles
system.cpu.dcache.demand_mshr_miss_rate::.cpu.data     0.009483                       # mshr miss rate for demand accesses
system.cpu.dcache.demand_mshr_miss_rate::total     0.009483                       # mshr miss rate for demand accesses
system.cpu.dcache.overall_mshr_miss_rate::.cpu.data     0.009483                       # mshr miss rate for overall accesses
system.cpu.dcache.overall_mshr_miss_rate::total     0.009483                       # mshr miss rate for overall accesses
system.cpu.dcache.demand_avg_mshr_miss_latency::.cpu.data 60253.080823                       # average overall mshr miss latency
system.cpu.dcache.demand_avg_mshr_miss_latency::total 60253.080823                       # average overall mshr miss latency
system.cpu.dcache.overall_avg_mshr_miss_latency::.cpu.data 60253.080823                       # average overall mshr miss latency
system.cpu.dcache.overall_avg_mshr_miss_latency::total 60253.080823                       # average overall mshr miss latency
system.cpu.dcache.replacements                1227627                       # number of replacements
system.cpu.dcache.ReadReq_hits::.cpu.data    100015891                       # number of ReadReq hits
system.cpu.dcache.ReadReq_hits::total       100015891                       # number of ReadReq hits
system.cpu.dcache.ReadReq_misses::.cpu.data       876933                       # number of ReadReq misses
system.cpu.dcache.ReadReq_misses::total        876933                       # number of ReadReq misses
system.cpu.dcache.ReadReq_miss_latency::.cpu.data  54641734000                       # number of ReadReq miss cycles
system.cpu.dcache.ReadReq_miss_latency::total  54641734000                       # number of ReadReq miss cycles
system.cpu.dcache.ReadReq_accesses::.cpu.data    100892824                       # number of ReadReq accesses(hits+misses)
system.cpu.dcache.ReadReq_accesses::total    100892824                       # number of ReadReq accesses(hits+misses)
system.cpu.dcache.ReadReq_miss_rate::.cpu.data     0.008692                       # miss rate for ReadReq accesses
system.cpu.dcache.ReadReq_miss_rate::total     0.008692                       # miss rate for ReadReq accesses
system.cpu.dcache.ReadReq_avg_miss_latency::.cpu.data 62310.044211                       # average ReadReq miss latency
system.cpu.dcache.ReadReq_avg_miss_latency::total 62310.044211                       # average ReadReq miss latency
system.cpu.dcache.ReadReq_mshr_hits::.cpu.data       117986                       # number of ReadReq MSHR hits
system.cpu.dcache.ReadReq_mshr_hits::total       117986                       # number of ReadReq MSHR hits
system.cpu.dcache.ReadReq_mshr_misses::.cpu.data       758947                       # number of ReadReq MSHR misses
system.cpu.dcache.ReadReq_mshr_misses::total       758947                       # number of ReadReq MSHR misses
system.cpu.dcache.ReadReq_mshr_miss_latency::.cpu.data  46668971000                       # number of ReadReq MSHR miss cycles
system.cpu.dcache.ReadReq_mshr_miss_latency::total  46668971000                       # number of ReadReq MSHR miss cycles
system.cpu.dcache.ReadReq_mshr_miss_rate::.cpu.data     0.007522                       # mshr miss rate for ReadReq accesses
system.cpu.dcache.ReadReq_mshr_miss_rate::total     0.007522                       # mshr miss rate for ReadReq accesses
system.cpu.dcache.ReadReq_avg_mshr_miss_latency::.cpu.data 61491.739212                       # average ReadReq mshr miss latency
system.cpu.dcache.ReadReq_avg_mshr_miss_latency::total 61491.739212                       # average ReadReq mshr miss latency
system.cpu.dcache.WriteReq_hits::.cpu.data     27077482                       # number of WriteReq hits
system.cpu.dcache.WriteReq_hits::total       27077482                       # number of WriteReq hits
system.cpu.dcache.WriteReq_misses::.cpu.data       909635                       # number of WriteReq misses
system.cpu.dcache.WriteReq_misses::total       909635                       # number of WriteReq misses
system.cpu.dcache.WriteReq_miss_latency::.cpu.data  54870287500                       # number of WriteReq miss cycles
system.cpu.dcache.WriteReq_miss_latency::total  54870287500                       # number of WriteReq miss cycles
system.cpu.dcache.WriteReq_accesses::.cpu.data     27987117                       # number of WriteReq accesses(hits+misses)
system.cpu.dcache.WriteReq_accesses::total     27987117                       # number of WriteReq accesses(hits+misses)
system.cpu.dcache.WriteReq_miss_rate::.cpu.data     0.032502                       # miss rate for WriteReq accesses
system.cpu.dcache.WriteReq_miss_rate::total     0.032502                       # miss rate for WriteReq accesses
system.cpu.dcache.WriteReq_avg_miss_latency::.cpu.data 60321.214003                       # average WriteReq miss latency
system.cpu.dcache.WriteReq_avg_miss_latency::total 60321.214003                       # average WriteReq miss latency
system.cpu.dcache.WriteReq_mshr_hits::.cpu.data       446425                       # number of WriteReq MSHR hits
system.cpu.dcache.WriteReq_mshr_hits::total       446425                       # number of WriteReq MSHR hits
system.cpu.dcache.WriteReq_mshr_misses::.cpu.data       463210                       # number of WriteReq MSHR misses
system.cpu.dcache.WriteReq_mshr_misses::total       463210                       # number of WriteReq MSHR misses
system.cpu.dcache.WriteReq_mshr_uncacheable::.cpu.data          375                       # number of WriteReq MSHR uncacheable
system.cpu.dcache.WriteReq_mshr_uncacheable::total          375                       # number of WriteReq MSHR uncacheable
system.cpu.dcache.WriteReq_mshr_miss_latency::.cpu.data  26969753500                       # number of WriteReq MSHR miss cycles
system.cpu.dcache.WriteReq_mshr_miss_latency::total  26969753500                       # number of WriteReq MSHR miss cycles
system.cpu.dcache.WriteReq_mshr_miss_rate::.cpu.data     0.016551                       # mshr miss rate for WriteReq accesses
system.cpu.dcache.WriteReq_mshr_miss_rate::total     0.016551                       # mshr miss rate for WriteReq accesses
system.cpu.dcache.WriteReq_avg_mshr_miss_latency::.cpu.data 58223.599447                       # average WriteReq mshr miss latency
system.cpu.dcache.WriteReq_avg_mshr_miss_latency::total 58223.599447                       # average WriteReq mshr miss latency
system.cpu.dcache.LoadLockedReq_hits::.cpu.data        80063                       # number of LoadLockedReq hits
system.cpu.dcache.LoadLockedReq_hits::total        80063                       # number of LoadLockedReq hits
system.cpu.dcache.LoadLockedReq_misses::.cpu.data         5472                       # number of LoadLockedReq misses
system.cpu.dcache.LoadLockedReq_misses::total         5472                       # number of LoadLockedReq misses
system.cpu.dcache.LoadLockedReq_miss_latency::.cpu.data    383320000                       # number of LoadLockedReq miss cycles
system.cpu.dcache.LoadLockedReq_miss_latency::total    383320000                       # number of LoadLockedReq miss cycles
system.cpu.dcache.LoadLockedReq_accesses::.cpu.data        85535                       # number of LoadLockedReq accesses(hits+misses)
system.cpu.dcache.LoadLockedReq_accesses::total        85535                       # number of LoadLockedReq accesses(hits+misses)
system.cpu.dcache.LoadLockedReq_miss_rate::.cpu.data     0.063974                       # miss rate for LoadLockedReq accesses
system.cpu.dcache.LoadLockedReq_miss_rate::total     0.063974                       # miss rate for LoadLockedReq accesses
system.cpu.dcache.LoadLockedReq_avg_miss_latency::.cpu.data 70051.169591                       # average LoadLockedReq miss latency
system.cpu.dcache.LoadLockedReq_avg_miss_latency::total 70051.169591                       # average LoadLockedReq miss latency
system.cpu.dcache.LoadLockedReq_mshr_misses::.cpu.data         5472                       # number of LoadLockedReq MSHR misses
system.cpu.dcache.LoadLockedReq_mshr_misses::total         5472                       # number of LoadLockedReq MSHR misses
system.cpu.dcache.LoadLockedReq_mshr_miss_latency::.cpu.data    377848000                       # number of LoadLockedReq MSHR miss cycles
system.cpu.dcache.LoadLockedReq_mshr_miss_latency::total    377848000                       # number of LoadLockedReq MSHR miss cycles
system.cpu.dcache.LoadLockedReq_mshr_miss_rate::.cpu.data     0.063974                       # mshr miss rate for LoadLockedReq accesses
system.cpu.dcache.LoadLockedReq_mshr_miss_rate::total     0.063974                       # mshr miss rate for LoadLockedReq accesses
system.cpu.dcache.LoadLockedReq_avg_mshr_miss_latency::.cpu.data 69051.169591                       # average LoadLockedReq mshr miss latency
system.cpu.dcache.LoadLockedReq_avg_mshr_miss_latency::total 69051.169591                       # average LoadLockedReq mshr miss latency
system.cpu.dcache.StoreCondReq_hits::.cpu.data        85449                       # number of StoreCondReq hits
system.cpu.dcache.StoreCondReq_hits::total        85449                       # number of StoreCondReq hits
system.cpu.dcache.StoreCondReq_accesses::.cpu.data        85449                       # number of StoreCondReq accesses(hits+misses)
system.cpu.dcache.StoreCondReq_accesses::total        85449                       # number of StoreCondReq accesses(hits+misses)
system.cpu.dcache.tags.pwrStateResidencyTicks::UNDEFINED 366256879500                       # Cumulative time (in ticks) in various power states
system.cpu.dcache.tags.tagsinuse                 1024                       # Cycle average of tags in use
system.cpu.dcache.tags.total_refs           128910009                       # Total number of references to valid blocks.
system.cpu.dcache.tags.sampled_refs           1228651                       # Sample count of references to valid blocks.
system.cpu.dcache.tags.avg_refs            104.919956                       # Average number of references to valid blocks.
system.cpu.dcache.tags.warmup_cycle                 0                       # Cycle when the warmup percentage was hit.
system.cpu.dcache.tags.occ_blocks::.cpu.data         1024                       # Average occupied blocks per requestor
system.cpu.dcache.tags.occ_percent::.cpu.data            1                       # Average percentage of cache occupancy
system.cpu.dcache.tags.occ_percent::total            1                       # Average percentage of cache occupancy
system.cpu.dcache.tags.occ_task_id_blocks::1024         1024                       # Occupied blocks per task id
system.cpu.dcache.tags.age_task_id_blocks_1024::0           17                       # Occupied blocks per task id
system.cpu.dcache.tags.age_task_id_blocks_1024::1          260                       # Occupied blocks per task id
system.cpu.dcache.tags.age_task_id_blocks_1024::2          719                       # Occupied blocks per task id
system.cpu.dcache.tags.age_task_id_blocks_1024::3           28                       # Occupied blocks per task id
system.cpu.dcache.tags.occ_task_id_percent::1024            1                       # Percentage of cache occupancy per task id
system.cpu.dcache.tags.tag_accesses         259329477                       # Number of tag accesses
system.cpu.dcache.tags.data_accesses        259329477                       # Number of data accesses

---------- End Simulation Statistics   ----------
