
---------- Begin Simulation Statistics ----------
final_tick                               2542191627500                       # Number of ticks from beginning of simulation (restored from checkpoints and never reset)
host_inst_rate                                 225946                       # Simulator instruction rate (inst/s)
host_mem_usage                                 740736                       # Number of bytes of host memory used
host_op_rate                                   225944                       # Simulator op (including micro ops) rate (op/s)
host_seconds                                    18.57                       # Real time elapsed on the host
host_tick_rate                              655992036                       # Simulator tick rate (ticks/s)
sim_freq                                 1000000000000                       # Frequency of simulated ticks
sim_insts                                     4195777                       # Number of instructions simulated
sim_ops                                       4195777                       # Number of ops (including micro ops) simulated
sim_seconds                                  0.012182                       # Number of seconds simulated
sim_ticks                                 12181782500                       # Number of ticks simulated
system.cpu.branchPred.BTBCorrect                    0                       # Number of correct BTB predictions (this stat may not work properly.
system.cpu.branchPred.BTBHitPct             48.934161                       # BTB Hit Percentage
system.cpu.branchPred.BTBHits                  372066                       # Number of BTB hits
system.cpu.branchPred.BTBLookups               760340                       # Number of BTB lookups
system.cpu.branchPred.RASInCorrect               2641                       # Number of incorrect RAS predictions.
system.cpu.branchPred.condIncorrect            115821                       # Number of conditional branches incorrect
system.cpu.branchPred.condPredicted            944572                       # Number of conditional branches predicted
system.cpu.branchPred.indirectHits              31607                       # Number of indirect target hits.
system.cpu.branchPred.indirectLookups          224936                       # Number of indirect predictor lookups.
system.cpu.branchPred.indirectMisses           193329                       # Number of indirect misses.
system.cpu.branchPred.lookups                 1151014                       # Number of BP lookups
system.cpu.branchPred.usedRAS                   71853                       # Number of times the RAS was used to get a target.
system.cpu.branchPredindirectMispredicted        30544                       # Number of mispredicted indirect branches.
system.cpu.committedInsts                     4195777                       # Number of instructions committed
system.cpu.committedOps                       4195777                       # Number of ops (including micro ops) committed
system.cpu.cpi                               5.803424                       # CPI: cycles per instruction
system.cpu.discardedOps                        316941                       # Number of ops (including micro ops) which were discarded before commit
system.cpu.dtb.data_accesses                   618745                       # DTB accesses
system.cpu.dtb.data_acv                           131                       # DTB access violations
system.cpu.dtb.data_hits                      1479394                       # DTB hits
system.cpu.dtb.data_misses                       8544                       # DTB misses
system.cpu.dtb.fetch_accesses                       0                       # ITB accesses
system.cpu.dtb.fetch_acv                            0                       # ITB acv
system.cpu.dtb.fetch_hits                           0                       # ITB hits
system.cpu.dtb.fetch_misses                         0                       # ITB misses
system.cpu.dtb.read_accesses                   417217                       # DTB read accesses
system.cpu.dtb.read_acv                            43                       # DTB read access violations
system.cpu.dtb.read_hits                       875293                       # DTB read hits
system.cpu.dtb.read_misses                       7679                       # DTB read misses
system.cpu.dtb.write_accesses                  201528                       # DTB write accesses
system.cpu.dtb.write_acv                           88                       # DTB write access violations
system.cpu.dtb.write_hits                      604101                       # DTB write hits
system.cpu.dtb.write_misses                       865                       # DTB write misses
system.cpu.fetch2.amo_instructions                  0                       # Number of memory atomic instructions successfully decoded
system.cpu.fetch2.fp_instructions               18277                       # Number of floating point instructions successfully decoded
system.cpu.fetch2.int_instructions            3698050                       # Number of integer instructions successfully decoded
system.cpu.fetch2.load_instructions           1167302                       # Number of memory load instructions successfully decoded
system.cpu.fetch2.store_instructions           687703                       # Number of memory store instructions successfully decoded
system.cpu.fetch2.vec_instructions                  0                       # Number of SIMD instructions successfully decoded
system.cpu.idleCycles                        17103900                       # Total number of cycles that the object has spent stopped
system.cpu.ipc                               0.172312                       # IPC: instructions per cycle
system.cpu.itb.data_accesses                        0                       # DTB accesses
system.cpu.itb.data_acv                             0                       # DTB access violations
system.cpu.itb.data_hits                            0                       # DTB hits
system.cpu.itb.data_misses                          0                       # DTB misses
system.cpu.itb.fetch_accesses                  992308                       # ITB accesses
system.cpu.itb.fetch_acv                          473                       # ITB acv
system.cpu.itb.fetch_hits                      986401                       # ITB hits
system.cpu.itb.fetch_misses                      5907                       # ITB misses
system.cpu.itb.read_accesses                        0                       # DTB read accesses
system.cpu.itb.read_acv                             0                       # DTB read access violations
system.cpu.itb.read_hits                            0                       # DTB read hits
system.cpu.itb.read_misses                          0                       # DTB read misses
system.cpu.itb.write_accesses                       0                       # DTB write accesses
system.cpu.itb.write_acv                            0                       # DTB write access violations
system.cpu.itb.write_hits                           0                       # DTB write hits
system.cpu.itb.write_misses                         0                       # DTB write misses
system.cpu.kern.callpal::swpctx                   574      9.41%      9.41% # number of callpals executed
system.cpu.kern.callpal::tbi                       25      0.41%      9.81% # number of callpals executed
system.cpu.kern.callpal::swpipl                  4237     69.42%     79.24% # number of callpals executed
system.cpu.kern.callpal::rdps                      50      0.82%     80.06% # number of callpals executed
system.cpu.kern.callpal::wrusp                      4      0.07%     80.12% # number of callpals executed
system.cpu.kern.callpal::rdusp                      3      0.05%     80.17% # number of callpals executed
system.cpu.kern.callpal::rti                      897     14.70%     94.87% # number of callpals executed
system.cpu.kern.callpal::callsys                  235      3.85%     98.72% # number of callpals executed
system.cpu.kern.callpal::imb                       78      1.28%    100.00% # number of callpals executed
system.cpu.kern.callpal::total                   6103                       # number of callpals executed
system.cpu.kern.inst.arm                            0                       # number of arm instructions executed
system.cpu.kern.inst.hwrei                      14447                       # number of hwrei instructions executed
system.cpu.kern.inst.quiesce                        9                       # number of quiesce instructions executed
system.cpu.kern.ipl_count::0                     2438     47.32%     47.32% # number of times we switched to this ipl
system.cpu.kern.ipl_count::21                       5      0.10%     47.42% # number of times we switched to this ipl
system.cpu.kern.ipl_count::22                      13      0.25%     47.67% # number of times we switched to this ipl
system.cpu.kern.ipl_count::31                    2696     52.33%    100.00% # number of times we switched to this ipl
system.cpu.kern.ipl_count::total                 5152                       # number of times we switched to this ipl
system.cpu.kern.ipl_good::0                      2425     49.82%     49.82% # number of times we switched to this ipl from a different ipl
system.cpu.kern.ipl_good::21                        5      0.10%     49.92% # number of times we switched to this ipl from a different ipl
system.cpu.kern.ipl_good::22                       13      0.27%     50.18% # number of times we switched to this ipl from a different ipl
system.cpu.kern.ipl_good::31                     2425     49.82%    100.00% # number of times we switched to this ipl from a different ipl
system.cpu.kern.ipl_good::total                  4868                       # number of times we switched to this ipl from a different ipl
system.cpu.kern.ipl_ticks::0              11226846500     92.13%     92.13% # number of cycles we spent at this ipl
system.cpu.kern.ipl_ticks::21                 9000000      0.07%     92.20% # number of cycles we spent at this ipl
system.cpu.kern.ipl_ticks::22                19825500      0.16%     92.36% # number of cycles we spent at this ipl
system.cpu.kern.ipl_ticks::31               930504000      7.64%    100.00% # number of cycles we spent at this ipl
system.cpu.kern.ipl_ticks::total          12186176000                       # number of cycles we spent at this ipl
system.cpu.kern.ipl_used::0                  0.994668                       # fraction of swpipl calls that actually changed the ipl
system.cpu.kern.ipl_used::21                        1                       # fraction of swpipl calls that actually changed the ipl
system.cpu.kern.ipl_used::22                        1                       # fraction of swpipl calls that actually changed the ipl
system.cpu.kern.ipl_used::31                 0.899481                       # fraction of swpipl calls that actually changed the ipl
system.cpu.kern.ipl_used::total              0.944876                       # fraction of swpipl calls that actually changed the ipl
system.cpu.kern.mode_good::kernel                 871                      
system.cpu.kern.mode_good::user                   871                      
system.cpu.kern.mode_good::idle                     0                      
system.cpu.kern.mode_switch::kernel              1471                       # number of protection mode switches
system.cpu.kern.mode_switch::user                 871                       # number of protection mode switches
system.cpu.kern.mode_switch::idle                   0                       # number of protection mode switches
system.cpu.kern.mode_switch_good::kernel     0.592114                       # fraction of useful protection mode switches
system.cpu.kern.mode_switch_good::user              1                       # fraction of useful protection mode switches
system.cpu.kern.mode_switch_good::idle            nan                       # fraction of useful protection mode switches
system.cpu.kern.mode_switch_good::total      0.743809                       # fraction of useful protection mode switches
system.cpu.kern.mode_ticks::kernel         8204193000     67.32%     67.32% # number of ticks spent at the given mode
system.cpu.kern.mode_ticks::user           3981983000     32.68%    100.00% # number of ticks spent at the given mode
system.cpu.kern.mode_ticks::idle                    0      0.00%    100.00% # number of ticks spent at the given mode
system.cpu.kern.swap_context                      574                       # number of times the context was actually changed
system.cpu.numCycles                         24349873                       # number of cpu cycles simulated
system.cpu.numFetchSuspends                         9                       # Number of times Execute suspended instruction fetching
system.cpu.numWorkItemsCompleted                    0                       # number of work items this cpu completed
system.cpu.numWorkItemsStarted                      0                       # number of work items this cpu started
system.cpu.op_class_0::No_OpClass               85385      2.04%      2.04% # Class of committed instruction
system.cpu.op_class_0::IntAlu                 2541410     60.57%     62.61% # Class of committed instruction
system.cpu.op_class_0::IntMult                   3684      0.09%     62.69% # Class of committed instruction
system.cpu.op_class_0::IntDiv                       0      0.00%     62.69% # Class of committed instruction
system.cpu.op_class_0::FloatAdd                  8286      0.20%     62.89% # Class of committed instruction
system.cpu.op_class_0::FloatCmp                     0      0.00%     62.89% # Class of committed instruction
system.cpu.op_class_0::FloatCvt                     0      0.00%     62.89% # Class of committed instruction
system.cpu.op_class_0::FloatMult                    0      0.00%     62.89% # Class of committed instruction
system.cpu.op_class_0::FloatMultAcc                 0      0.00%     62.89% # Class of committed instruction
system.cpu.op_class_0::FloatDiv                  1593      0.04%     62.93% # Class of committed instruction
system.cpu.op_class_0::FloatMisc                    0      0.00%     62.93% # Class of committed instruction
system.cpu.op_class_0::FloatSqrt                    0      0.00%     62.93% # Class of committed instruction
system.cpu.op_class_0::SimdAdd                      0      0.00%     62.93% # Class of committed instruction
system.cpu.op_class_0::SimdAddAcc                   0      0.00%     62.93% # Class of committed instruction
system.cpu.op_class_0::SimdAlu                      0      0.00%     62.93% # Class of committed instruction
system.cpu.op_class_0::SimdCmp                      0      0.00%     62.93% # Class of committed instruction
system.cpu.op_class_0::SimdCvt                      0      0.00%     62.93% # Class of committed instruction
system.cpu.op_class_0::SimdMisc                     0      0.00%     62.93% # Class of committed instruction
system.cpu.op_class_0::SimdMult                     0      0.00%     62.93% # Class of committed instruction
system.cpu.op_class_0::SimdMultAcc                  0      0.00%     62.93% # Class of committed instruction
system.cpu.op_class_0::SimdShift                    0      0.00%     62.93% # Class of committed instruction
system.cpu.op_class_0::SimdShiftAcc                 0      0.00%     62.93% # Class of committed instruction
system.cpu.op_class_0::SimdDiv                      0      0.00%     62.93% # Class of committed instruction
system.cpu.op_class_0::SimdSqrt                     0      0.00%     62.93% # Class of committed instruction
system.cpu.op_class_0::SimdFloatAdd                 0      0.00%     62.93% # Class of committed instruction
system.cpu.op_class_0::SimdFloatAlu                 0      0.00%     62.93% # Class of committed instruction
system.cpu.op_class_0::SimdFloatCmp                 0      0.00%     62.93% # Class of committed instruction
system.cpu.op_class_0::SimdFloatCvt                 0      0.00%     62.93% # Class of committed instruction
system.cpu.op_class_0::SimdFloatDiv                 0      0.00%     62.93% # Class of committed instruction
system.cpu.op_class_0::SimdFloatMisc                0      0.00%     62.93% # Class of committed instruction
system.cpu.op_class_0::SimdFloatMult                0      0.00%     62.93% # Class of committed instruction
system.cpu.op_class_0::SimdFloatMultAcc             0      0.00%     62.93% # Class of committed instruction
system.cpu.op_class_0::SimdFloatSqrt                0      0.00%     62.93% # Class of committed instruction
system.cpu.op_class_0::SimdReduceAdd                0      0.00%     62.93% # Class of committed instruction
system.cpu.op_class_0::SimdReduceAlu                0      0.00%     62.93% # Class of committed instruction
system.cpu.op_class_0::SimdReduceCmp                0      0.00%     62.93% # Class of committed instruction
system.cpu.op_class_0::SimdFloatReduceAdd            0      0.00%     62.93% # Class of committed instruction
system.cpu.op_class_0::SimdFloatReduceCmp            0      0.00%     62.93% # Class of committed instruction
system.cpu.op_class_0::SimdAes                      0      0.00%     62.93% # Class of committed instruction
system.cpu.op_class_0::SimdAesMix                   0      0.00%     62.93% # Class of committed instruction
system.cpu.op_class_0::SimdSha1Hash                 0      0.00%     62.93% # Class of committed instruction
system.cpu.op_class_0::SimdSha1Hash2                0      0.00%     62.93% # Class of committed instruction
system.cpu.op_class_0::SimdSha256Hash               0      0.00%     62.93% # Class of committed instruction
system.cpu.op_class_0::SimdSha256Hash2              0      0.00%     62.93% # Class of committed instruction
system.cpu.op_class_0::SimdShaSigma2                0      0.00%     62.93% # Class of committed instruction
system.cpu.op_class_0::SimdShaSigma3                0      0.00%     62.93% # Class of committed instruction
system.cpu.op_class_0::SimdPredAlu                  0      0.00%     62.93% # Class of committed instruction
system.cpu.op_class_0::MemRead                 839227     20.00%     82.93% # Class of committed instruction
system.cpu.op_class_0::MemWrite                592472     14.12%     97.05% # Class of committed instruction
system.cpu.op_class_0::FloatMemRead              9988      0.24%     97.29% # Class of committed instruction
system.cpu.op_class_0::FloatMemWrite             8788      0.21%     97.50% # Class of committed instruction
system.cpu.op_class_0::IprAccess               104944      2.50%    100.00% # Class of committed instruction
system.cpu.op_class_0::InstPrefetch                 0      0.00%    100.00% # Class of committed instruction
system.cpu.op_class_0::total                  4195777                       # Class of committed instruction
system.cpu.quiesceCycles                        13692                       # Total number of cycles that CPU has spent quiesced or waiting for an interrupt
system.cpu.tickCycles                         7245973                       # Number of cycles that the object actually ticked
system.disk0.dma_read_bytes                         0                       # Number of bytes transfered via DMA reads (not PRD).
system.disk0.dma_read_full_pages                    0                       # Number of full page size DMA reads (not PRD).
system.disk0.dma_read_txs                           0                       # Number of DMA read transactions (not PRD).
system.disk0.dma_write_bytes                    12288                       # Number of bytes transfered via DMA writes.
system.disk0.dma_write_full_pages                   0                       # Number of full page size DMA writes.
system.disk0.dma_write_txs                          3                       # Number of DMA write transactions.
system.disk2.dma_read_bytes                         0                       # Number of bytes transfered via DMA reads (not PRD).
system.disk2.dma_read_full_pages                    0                       # Number of full page size DMA reads (not PRD).
system.disk2.dma_read_txs                           0                       # Number of DMA read transactions (not PRD).
system.disk2.dma_write_bytes                        0                       # Number of bytes transfered via DMA writes.
system.disk2.dma_write_full_pages                   0                       # Number of full page size DMA writes.
system.disk2.dma_write_txs                          0                       # Number of DMA write transactions.
system.membus.snoop_filter.hit_multi_requests          436                       # Number of requests hitting in the snoop filter with multiple (>1) holders of the requested data.
system.membus.snoop_filter.hit_multi_snoops            0                       # Number of snoops hitting in the snoop filter with multiple (>1) holders of the requested data.
system.membus.snoop_filter.hit_single_requests       158355                       # Number of requests hitting in the snoop filter with a single holder of the requested data.
system.membus.snoop_filter.hit_single_snoops            0                       # Number of snoops hitting in the snoop filter with a single holder of the requested data.
system.membus.snoop_filter.tot_requests        318318                       # Total number of requests made to the snoop filter.
system.membus.snoop_filter.tot_snoops               0                       # Total number of snoops made to the snoop filter.
system.tsunami.ethernet.coalescedRxDesc           nan                       # average number of RxDesc's coalesced into each post
system.tsunami.ethernet.coalescedRxIdle           nan                       # average number of RxIdle's coalesced into each post
system.tsunami.ethernet.coalescedRxOk             nan                       # average number of RxOk's coalesced into each post
system.tsunami.ethernet.coalescedRxOrn            nan                       # average number of RxOrn's coalesced into each post
system.tsunami.ethernet.coalescedSwi              nan                       # average number of Swi's coalesced into each post
system.tsunami.ethernet.coalescedTotal            nan                       # average number of interrupts coalesced into each post
system.tsunami.ethernet.coalescedTxDesc           nan                       # average number of TxDesc's coalesced into each post
system.tsunami.ethernet.coalescedTxIdle           nan                       # average number of TxIdle's coalesced into each post
system.tsunami.ethernet.coalescedTxOk             nan                       # average number of TxOk's coalesced into each post
system.tsunami.ethernet.descDMAReads                0                       # Number of descriptors the device read w/ DMA
system.tsunami.ethernet.descDMAWrites               0                       # Number of descriptors the device wrote w/ DMA
system.tsunami.ethernet.descDmaReadBytes            0                       # number of descriptor bytes read w/ DMA
system.tsunami.ethernet.descDmaWriteBytes            0                       # number of descriptor bytes write w/ DMA
system.tsunami.ethernet.droppedPackets              0                       # number of packets dropped
system.tsunami.ethernet.postedInterrupts            0                       # number of posts to CPU
system.tsunami.ethernet.postedRxDesc                0                       # number of RxDesc interrupts posted to CPU
system.tsunami.ethernet.postedRxIdle                0                       # number of rxIdle interrupts posted to CPU
system.tsunami.ethernet.postedRxOk                  0                       # number of RxOk interrupts posted to CPU
system.tsunami.ethernet.postedRxOrn                 0                       # number of RxOrn posted to CPU
system.tsunami.ethernet.postedSwi                   0                       # number of software interrupts posted to CPU
system.tsunami.ethernet.postedTxDesc                0                       # number of TxDesc interrupts posted to CPU
system.tsunami.ethernet.postedTxIdle                0                       # number of TxIdle interrupts posted to CPU
system.tsunami.ethernet.postedTxOk                  0                       # number of TxOk interrupts posted to CPU
system.tsunami.ethernet.totalRxDesc                 0                       # total number of RxDesc written to ISR
system.tsunami.ethernet.totalRxIdle                 0                       # total number of RxIdle written to ISR
system.tsunami.ethernet.totalRxOk                   0                       # total number of RxOk written to ISR
system.tsunami.ethernet.totalRxOrn                  0                       # total number of RxOrn written to ISR
system.tsunami.ethernet.totalSwi                    0                       # total number of Swi written to ISR
system.tsunami.ethernet.totalTxDesc                 0                       # total number of TxDesc written to ISR
system.tsunami.ethernet.totalTxIdle                 0                       # total number of TxIdle written to ISR
system.tsunami.ethernet.totalTxOk                   0                       # total number of TxOk written to ISR
system.bridge.pwrStateResidencyTicks::UNDEFINED 2542191627500                       # Cumulative time (in ticks) in various power states
system.voltage_domain.voltage                       1                       # Voltage in Volts
system.iocache.pwrStateResidencyTicks::UNDEFINED 2542191627500                       # Cumulative time (in ticks) in various power states
system.iocache.demand_misses::.tsunami.ide          195                       # number of demand (read+write) misses
system.iocache.demand_misses::total               195                       # number of demand (read+write) misses
system.iocache.overall_misses::.tsunami.ide          195                       # number of overall misses
system.iocache.overall_misses::total              195                       # number of overall misses
system.iocache.demand_miss_latency::.tsunami.ide     22805456                       # number of demand (read+write) miss cycles
system.iocache.demand_miss_latency::total     22805456                       # number of demand (read+write) miss cycles
system.iocache.overall_miss_latency::.tsunami.ide     22805456                       # number of overall miss cycles
system.iocache.overall_miss_latency::total     22805456                       # number of overall miss cycles
system.iocache.demand_accesses::.tsunami.ide          195                       # number of demand (read+write) accesses
system.iocache.demand_accesses::total             195                       # number of demand (read+write) accesses
system.iocache.overall_accesses::.tsunami.ide          195                       # number of overall (read+write) accesses
system.iocache.overall_accesses::total            195                       # number of overall (read+write) accesses
system.iocache.demand_miss_rate::.tsunami.ide            1                       # miss rate for demand accesses
system.iocache.demand_miss_rate::total              1                       # miss rate for demand accesses
system.iocache.overall_miss_rate::.tsunami.ide            1                       # miss rate for overall accesses
system.iocache.overall_miss_rate::total             1                       # miss rate for overall accesses
system.iocache.demand_avg_miss_latency::.tsunami.ide 116951.056410                       # average overall miss latency
system.iocache.demand_avg_miss_latency::total 116951.056410                       # average overall miss latency
system.iocache.overall_avg_miss_latency::.tsunami.ide 116951.056410                       # average overall miss latency
system.iocache.overall_avg_miss_latency::total 116951.056410                       # average overall miss latency
system.iocache.blocked_cycles::no_mshrs             0                       # number of cycles access was blocked
system.iocache.blocked_cycles::no_targets            0                       # number of cycles access was blocked
system.iocache.blocked::no_mshrs                    0                       # number of cycles access was blocked
system.iocache.blocked::no_targets                  0                       # number of cycles access was blocked
system.iocache.avg_blocked_cycles::no_mshrs          nan                       # average number of cycles each access was blocked
system.iocache.avg_blocked_cycles::no_targets          nan                       # average number of cycles each access was blocked
system.iocache.writebacks::.writebacks            176                       # number of writebacks
system.iocache.writebacks::total                  176                       # number of writebacks
system.iocache.demand_mshr_misses::.tsunami.ide          195                       # number of demand (read+write) MSHR misses
system.iocache.demand_mshr_misses::total          195                       # number of demand (read+write) MSHR misses
system.iocache.overall_mshr_misses::.tsunami.ide          195                       # number of overall MSHR misses
system.iocache.overall_mshr_misses::total          195                       # number of overall MSHR misses
system.iocache.demand_mshr_miss_latency::.tsunami.ide     13044488                       # number of demand (read+write) MSHR miss cycles
system.iocache.demand_mshr_miss_latency::total     13044488                       # number of demand (read+write) MSHR miss cycles
system.iocache.overall_mshr_miss_latency::.tsunami.ide     13044488                       # number of overall MSHR miss cycles
system.iocache.overall_mshr_miss_latency::total     13044488                       # number of overall MSHR miss cycles
system.iocache.demand_mshr_miss_rate::.tsunami.ide            1                       # mshr miss rate for demand accesses
system.iocache.demand_mshr_miss_rate::total            1                       # mshr miss rate for demand accesses
system.iocache.overall_mshr_miss_rate::.tsunami.ide            1                       # mshr miss rate for overall accesses
system.iocache.overall_mshr_miss_rate::total            1                       # mshr miss rate for overall accesses
system.iocache.demand_avg_mshr_miss_latency::.tsunami.ide 66894.810256                       # average overall mshr miss latency
system.iocache.demand_avg_mshr_miss_latency::total 66894.810256                       # average overall mshr miss latency
system.iocache.overall_avg_mshr_miss_latency::.tsunami.ide 66894.810256                       # average overall mshr miss latency
system.iocache.overall_avg_mshr_miss_latency::total 66894.810256                       # average overall mshr miss latency
system.iocache.replacements                       179                       # number of replacements
system.iocache.ReadReq_misses::.tsunami.ide            3                       # number of ReadReq misses
system.iocache.ReadReq_misses::total                3                       # number of ReadReq misses
system.iocache.ReadReq_miss_latency::.tsunami.ide       349497                       # number of ReadReq miss cycles
system.iocache.ReadReq_miss_latency::total       349497                       # number of ReadReq miss cycles
system.iocache.ReadReq_accesses::.tsunami.ide            3                       # number of ReadReq accesses(hits+misses)
system.iocache.ReadReq_accesses::total              3                       # number of ReadReq accesses(hits+misses)
system.iocache.ReadReq_miss_rate::.tsunami.ide            1                       # miss rate for ReadReq accesses
system.iocache.ReadReq_miss_rate::total             1                       # miss rate for ReadReq accesses
system.iocache.ReadReq_avg_miss_latency::.tsunami.ide       116499                       # average ReadReq miss latency
system.iocache.ReadReq_avg_miss_latency::total       116499                       # average ReadReq miss latency
system.iocache.ReadReq_mshr_misses::.tsunami.ide            3                       # number of ReadReq MSHR misses
system.iocache.ReadReq_mshr_misses::total            3                       # number of ReadReq MSHR misses
system.iocache.ReadReq_mshr_miss_latency::.tsunami.ide       199497                       # number of ReadReq MSHR miss cycles
system.iocache.ReadReq_mshr_miss_latency::total       199497                       # number of ReadReq MSHR miss cycles
system.iocache.ReadReq_mshr_miss_rate::.tsunami.ide            1                       # mshr miss rate for ReadReq accesses
system.iocache.ReadReq_mshr_miss_rate::total            1                       # mshr miss rate for ReadReq accesses
system.iocache.ReadReq_avg_mshr_miss_latency::.tsunami.ide        66499                       # average ReadReq mshr miss latency
system.iocache.ReadReq_avg_mshr_miss_latency::total        66499                       # average ReadReq mshr miss latency
system.iocache.WriteLineReq_misses::.tsunami.ide          192                       # number of WriteLineReq misses
system.iocache.WriteLineReq_misses::total          192                       # number of WriteLineReq misses
system.iocache.WriteLineReq_miss_latency::.tsunami.ide     22455959                       # number of WriteLineReq miss cycles
system.iocache.WriteLineReq_miss_latency::total     22455959                       # number of WriteLineReq miss cycles
system.iocache.WriteLineReq_accesses::.tsunami.ide          192                       # number of WriteLineReq accesses(hits+misses)
system.iocache.WriteLineReq_accesses::total          192                       # number of WriteLineReq accesses(hits+misses)
system.iocache.WriteLineReq_miss_rate::.tsunami.ide            1                       # miss rate for WriteLineReq accesses
system.iocache.WriteLineReq_miss_rate::total            1                       # miss rate for WriteLineReq accesses
system.iocache.WriteLineReq_avg_miss_latency::.tsunami.ide 116958.119792                       # average WriteLineReq miss latency
system.iocache.WriteLineReq_avg_miss_latency::total 116958.119792                       # average WriteLineReq miss latency
system.iocache.WriteLineReq_mshr_misses::.tsunami.ide          192                       # number of WriteLineReq MSHR misses
system.iocache.WriteLineReq_mshr_misses::total          192                       # number of WriteLineReq MSHR misses
system.iocache.WriteLineReq_mshr_miss_latency::.tsunami.ide     12844991                       # number of WriteLineReq MSHR miss cycles
system.iocache.WriteLineReq_mshr_miss_latency::total     12844991                       # number of WriteLineReq MSHR miss cycles
system.iocache.WriteLineReq_mshr_miss_rate::.tsunami.ide            1                       # mshr miss rate for WriteLineReq accesses
system.iocache.WriteLineReq_mshr_miss_rate::total            1                       # mshr miss rate for WriteLineReq accesses
system.iocache.WriteLineReq_avg_mshr_miss_latency::.tsunami.ide 66900.994792                       # average WriteLineReq mshr miss latency
system.iocache.WriteLineReq_avg_mshr_miss_latency::total 66900.994792                       # average WriteLineReq mshr miss latency
system.iocache.tags.pwrStateResidencyTicks::UNDEFINED 2542191627500                       # Cumulative time (in ticks) in various power states
system.iocache.tags.tagsinuse                3.289211                       # Cycle average of tags in use
system.iocache.tags.total_refs                    179                       # Total number of references to valid blocks.
system.iocache.tags.sampled_refs                  179                       # Sample count of references to valid blocks.
system.iocache.tags.avg_refs                        1                       # Average number of references to valid blocks.
system.iocache.tags.warmup_cycle         2539686271000                       # Cycle when the warmup percentage was hit.
system.iocache.tags.occ_blocks::.tsunami.ide     3.289211                       # Average occupied blocks per requestor
system.iocache.tags.occ_percent::.tsunami.ide     0.205576                       # Average percentage of cache occupancy
system.iocache.tags.occ_percent::total       0.205576                       # Average percentage of cache occupancy
system.iocache.tags.occ_task_id_blocks::1023           16                       # Occupied blocks per task id
system.iocache.tags.age_task_id_blocks_1023::3           16                       # Occupied blocks per task id
system.iocache.tags.occ_task_id_percent::1023            1                       # Percentage of cache occupancy per task id
system.iocache.tags.tag_accesses                 1755                       # Number of tag accesses
system.iocache.tags.data_accesses                1755                       # Number of data accesses
system.membus.pwrStateResidencyTicks::UNDEFINED 2542191627500                       # Cumulative time (in ticks) in various power states
system.membus.trans_dist::ReadReq                 108                       # Transaction distribution
system.membus.trans_dist::ReadResp             130921                       # Transaction distribution
system.membus.trans_dist::WriteReq                100                       # Transaction distribution
system.membus.trans_dist::WriteResp               100                       # Transaction distribution
system.membus.trans_dist::WritebackDirty        34908                       # Transaction distribution
system.membus.trans_dist::WritebackClean        88866                       # Transaction distribution
system.membus.trans_dist::CleanEvict            34561                       # Transaction distribution
system.membus.trans_dist::UpgradeReq               15                       # Transaction distribution
system.membus.trans_dist::ReadExReq             28960                       # Transaction distribution
system.membus.trans_dist::ReadExResp            28960                       # Transaction distribution
system.membus.trans_dist::ReadCleanReq          89456                       # Transaction distribution
system.membus.trans_dist::ReadSharedReq         41360                       # Transaction distribution
system.membus.trans_dist::BadAddressError            3                       # Transaction distribution
system.membus.trans_dist::InvalidateReq           192                       # Transaction distribution
system.membus.pkt_count_system.iocache.mem_side::system.mem_ctrls.port          374                       # Packet count per connected master and slave (bytes)
system.membus.pkt_count_system.iocache.mem_side::total          374                       # Packet count per connected master and slave (bytes)
system.membus.pkt_count_system.cpu.icache.mem_side::system.mem_ctrls.port       267710                       # Packet count per connected master and slave (bytes)
system.membus.pkt_count_system.cpu.icache.mem_side::total       267710                       # Packet count per connected master and slave (bytes)
system.membus.pkt_count_system.cpu.dcache.mem_side::system.bridge.slave          416                       # Packet count per connected master and slave (bytes)
system.membus.pkt_count_system.cpu.dcache.mem_side::system.mem_ctrls.port       209933                       # Packet count per connected master and slave (bytes)
system.membus.pkt_count_system.cpu.dcache.mem_side::system.membus.badaddr_responder.pio            6                       # Packet count per connected master and slave (bytes)
system.membus.pkt_count_system.cpu.dcache.mem_side::total       210355                       # Packet count per connected master and slave (bytes)
system.membus.pkt_count::total                 478439                       # Packet count per connected master and slave (bytes)
system.membus.pkt_size_system.iocache.mem_side::system.mem_ctrls.port        11264                       # Cumulative packet size per connected master and slave (bytes)
system.membus.pkt_size_system.iocache.mem_side::total        11264                       # Cumulative packet size per connected master and slave (bytes)
system.membus.pkt_size_system.cpu.icache.mem_side::system.mem_ctrls.port     11408256                       # Cumulative packet size per connected master and slave (bytes)
system.membus.pkt_size_system.cpu.icache.mem_side::total     11408256                       # Cumulative packet size per connected master and slave (bytes)
system.membus.pkt_size_system.cpu.dcache.mem_side::system.bridge.slave          441                       # Cumulative packet size per connected master and slave (bytes)
system.membus.pkt_size_system.cpu.dcache.mem_side::system.mem_ctrls.port      6722944                       # Cumulative packet size per connected master and slave (bytes)
system.membus.pkt_size_system.cpu.dcache.mem_side::total      6723385                       # Cumulative packet size per connected master and slave (bytes)
system.membus.pkt_size::total                18142905                       # Cumulative packet size per connected master and slave (bytes)
system.membus.snoops                               71                       # Total snoops (count)
system.membus.snoopTraffic                       4544                       # Total snoop traffic (bytes)
system.membus.snoop_fanout::samples            160191                       # Request fanout histogram
system.membus.snoop_fanout::mean             0.002728                       # Request fanout histogram
system.membus.snoop_fanout::stdev            0.052159                       # Request fanout histogram
system.membus.snoop_fanout::underflows              0      0.00%      0.00% # Request fanout histogram
system.membus.snoop_fanout::0                  159754     99.73%     99.73% # Request fanout histogram
system.membus.snoop_fanout::1                     437      0.27%    100.00% # Request fanout histogram
system.membus.snoop_fanout::2                       0      0.00%    100.00% # Request fanout histogram
system.membus.snoop_fanout::3                       0      0.00%    100.00% # Request fanout histogram
system.membus.snoop_fanout::overflows               0      0.00%    100.00% # Request fanout histogram
system.membus.snoop_fanout::min_value               0                       # Request fanout histogram
system.membus.snoop_fanout::max_value               1                       # Request fanout histogram
system.membus.snoop_fanout::total              160191                       # Request fanout histogram
system.membus.reqLayer0.occupancy              352000                       # Layer occupancy (ticks)
system.membus.reqLayer0.utilization               0.0                       # Layer utilization (%)
system.membus.reqLayer1.occupancy           836718535                       # Layer occupancy (ticks)
system.membus.reqLayer1.utilization               6.9                       # Layer utilization (%)
system.membus.reqLayer2.occupancy                4500                       # Layer occupancy (ticks)
system.membus.reqLayer2.utilization               0.0                       # Layer utilization (%)
system.membus.respLayer1.occupancy              17997                       # Layer occupancy (ticks)
system.membus.respLayer1.utilization              0.0                       # Layer utilization (%)
system.membus.respLayer3.occupancy          378288500                       # Layer occupancy (ticks)
system.membus.respLayer3.utilization              3.1                       # Layer utilization (%)
system.membus.badaddr_responder.pwrStateResidencyTicks::UNDEFINED 2542191627500                       # Cumulative time (in ticks) in various power states
system.membus.respLayer2.occupancy          474429000                       # Layer occupancy (ticks)
system.membus.respLayer2.utilization              3.9                       # Layer utilization (%)
system.clk_domain.clock                          1000                       # Clock period in ticks
system.tsunami.fake_uart1.pwrStateResidencyTicks::UNDEFINED 2542191627500                       # Cumulative time (in ticks) in various power states
system.tsunami.fake_uart2.pwrStateResidencyTicks::UNDEFINED 2542191627500                       # Cumulative time (in ticks) in various power states
system.tsunami.fake_uart3.pwrStateResidencyTicks::UNDEFINED 2542191627500                       # Cumulative time (in ticks) in various power states
system.tsunami.fake_uart4.pwrStateResidencyTicks::UNDEFINED 2542191627500                       # Cumulative time (in ticks) in various power states
system.tsunami.fake_ppc.pwrStateResidencyTicks::UNDEFINED 2542191627500                       # Cumulative time (in ticks) in various power states
system.tsunami.cchip.pwrStateResidencyTicks::UNDEFINED 2542191627500                       # Cumulative time (in ticks) in various power states
system.tsunami.io.pwrStateResidencyTicks::UNDEFINED 2542191627500                       # Cumulative time (in ticks) in various power states
system.tsunami.pchip.pwrStateResidencyTicks::UNDEFINED 2542191627500                       # Cumulative time (in ticks) in various power states
system.tsunami.fake_ata1.pwrStateResidencyTicks::UNDEFINED 2542191627500                       # Cumulative time (in ticks) in various power states
system.tsunami.fake_ata0.pwrStateResidencyTicks::UNDEFINED 2542191627500                       # Cumulative time (in ticks) in various power states
system.tsunami.backdoor.pwrStateResidencyTicks::UNDEFINED 2542191627500                       # Cumulative time (in ticks) in various power states
system.tsunami.fake_pnp_read3.pwrStateResidencyTicks::UNDEFINED 2542191627500                       # Cumulative time (in ticks) in various power states
system.tsunami.fake_pnp_read2.pwrStateResidencyTicks::UNDEFINED 2542191627500                       # Cumulative time (in ticks) in various power states
system.tsunami.fake_pnp_read1.pwrStateResidencyTicks::UNDEFINED 2542191627500                       # Cumulative time (in ticks) in various power states
system.tsunami.fake_pnp_read0.pwrStateResidencyTicks::UNDEFINED 2542191627500                       # Cumulative time (in ticks) in various power states
system.tsunami.fake_pnp_read7.pwrStateResidencyTicks::UNDEFINED 2542191627500                       # Cumulative time (in ticks) in various power states
system.tsunami.fake_pnp_read6.pwrStateResidencyTicks::UNDEFINED 2542191627500                       # Cumulative time (in ticks) in various power states
system.tsunami.fake_pnp_read5.pwrStateResidencyTicks::UNDEFINED 2542191627500                       # Cumulative time (in ticks) in various power states
system.tsunami.fake_pnp_read4.pwrStateResidencyTicks::UNDEFINED 2542191627500                       # Cumulative time (in ticks) in various power states
system.tsunami.fake_pnp_write.pwrStateResidencyTicks::UNDEFINED 2542191627500                       # Cumulative time (in ticks) in various power states
system.tsunami.fb.pwrStateResidencyTicks::UNDEFINED 2542191627500                       # Cumulative time (in ticks) in various power states
system.tsunami.fake_pnp_addr.pwrStateResidencyTicks::UNDEFINED 2542191627500                       # Cumulative time (in ticks) in various power states
system.tsunami.fake_OROM.pwrStateResidencyTicks::UNDEFINED 2542191627500                       # Cumulative time (in ticks) in various power states
system.tsunami.uart.pwrStateResidencyTicks::UNDEFINED 2542191627500                       # Cumulative time (in ticks) in various power states
system.tsunami.fake_sm_chip.pwrStateResidencyTicks::UNDEFINED 2542191627500                       # Cumulative time (in ticks) in various power states
system.tsunami.ethernet.pwrStateResidencyTicks::UNDEFINED 2542191627500                       # Cumulative time (in ticks) in various power states
system.tsunami.ide.pwrStateResidencyTicks::UNDEFINED 2542191627500                       # Cumulative time (in ticks) in various power states
system.cpu_voltage_domain.voltage                   1                       # Voltage in Volts
system.mem_ctrls.pwrStateResidencyTicks::UNDEFINED 2542191627500                       # Cumulative time (in ticks) in various power states
system.mem_ctrls.bytes_read::.cpu.inst        5720832                       # Number of bytes read from this memory
system.mem_ctrls.bytes_read::.cpu.data        4500096                       # Number of bytes read from this memory
system.mem_ctrls.bytes_read::total           10220928                       # Number of bytes read from this memory
system.mem_ctrls.bytes_inst_read::.cpu.inst      5720832                       # Number of instructions bytes read from this memory
system.mem_ctrls.bytes_inst_read::total       5720832                       # Number of instructions bytes read from this memory
system.mem_ctrls.bytes_written::.writebacks      2234112                       # Number of bytes written to this memory
system.mem_ctrls.bytes_written::total         2234112                       # Number of bytes written to this memory
system.mem_ctrls.num_reads::.cpu.inst           89388                       # Number of read requests responded to by this memory
system.mem_ctrls.num_reads::.cpu.data           70314                       # Number of read requests responded to by this memory
system.mem_ctrls.num_reads::total              159702                       # Number of read requests responded to by this memory
system.mem_ctrls.num_writes::.writebacks        34908                       # Number of write requests responded to by this memory
system.mem_ctrls.num_writes::total              34908                       # Number of write requests responded to by this memory
system.mem_ctrls.bw_read::.cpu.inst         469621913                       # Total read bandwidth from this memory (bytes/s)
system.mem_ctrls.bw_read::.cpu.data         369411948                       # Total read bandwidth from this memory (bytes/s)
system.mem_ctrls.bw_read::total             839033861                       # Total read bandwidth from this memory (bytes/s)
system.mem_ctrls.bw_inst_read::.cpu.inst    469621913                       # Instruction read bandwidth from this memory (bytes/s)
system.mem_ctrls.bw_inst_read::total        469621913                       # Instruction read bandwidth from this memory (bytes/s)
system.mem_ctrls.bw_write::.writebacks      183397791                       # Write bandwidth from this memory (bytes/s)
system.mem_ctrls.bw_write::total            183397791                       # Write bandwidth from this memory (bytes/s)
system.mem_ctrls.bw_total::.writebacks      183397791                       # Total bandwidth to/from this memory (bytes/s)
system.mem_ctrls.bw_total::.cpu.inst        469621913                       # Total bandwidth to/from this memory (bytes/s)
system.mem_ctrls.bw_total::.cpu.data        369411948                       # Total bandwidth to/from this memory (bytes/s)
system.mem_ctrls.bw_total::total           1022431652                       # Total bandwidth to/from this memory (bytes/s)
system.mem_ctrls.avgPriority_.writebacks::samples    121541.00                       # Average QoS priority value for accepted requests
system.mem_ctrls.avgPriority_.cpu.inst::samples     79513.00                       # Average QoS priority value for accepted requests
system.mem_ctrls.avgPriority_.cpu.data::samples     69815.00                       # Average QoS priority value for accepted requests
system.mem_ctrls.priorityMinLatency      0.000000018750                       # per QoS priority minimum request to response latency (s)
system.mem_ctrls.priorityMaxLatency      0.000186087750                       # per QoS priority maximum request to response latency (s)
system.mem_ctrls.numReadWriteTurnArounds         7479                       # Number of turnarounds from READ to WRITE
system.mem_ctrls.numWriteReadTurnArounds         7479                       # Number of turnarounds from WRITE to READ
system.mem_ctrls.numStayReadState              414456                       # Number of times bus staying in READ state
system.mem_ctrls.numStayWriteState             114124                       # Number of times bus staying in WRITE state
system.mem_ctrls.readReqs                      159702                       # Number of read requests accepted
system.mem_ctrls.writeReqs                     123556                       # Number of write requests accepted
system.mem_ctrls.readBursts                    159702                       # Number of DRAM read bursts, including those serviced by the write queue
system.mem_ctrls.writeBursts                   123556                       # Number of DRAM write bursts, including those merged in the write queue
system.mem_ctrls.servicedByWrQ                  10374                       # Number of DRAM read bursts serviced by the write queue
system.mem_ctrls.mergedWrBursts                  2015                       # Number of DRAM write bursts merged with an existing one
system.mem_ctrls.neitherReadNorWriteReqs            0                       # Number of requests that are neither read nor write
system.mem_ctrls.perBankRdBursts::0              8956                       # Per bank write bursts
system.mem_ctrls.perBankRdBursts::1              6678                       # Per bank write bursts
system.mem_ctrls.perBankRdBursts::2             10333                       # Per bank write bursts
system.mem_ctrls.perBankRdBursts::3              7248                       # Per bank write bursts
system.mem_ctrls.perBankRdBursts::4              8702                       # Per bank write bursts
system.mem_ctrls.perBankRdBursts::5             10069                       # Per bank write bursts
system.mem_ctrls.perBankRdBursts::6              8804                       # Per bank write bursts
system.mem_ctrls.perBankRdBursts::7              8818                       # Per bank write bursts
system.mem_ctrls.perBankRdBursts::8             12008                       # Per bank write bursts
system.mem_ctrls.perBankRdBursts::9              9364                       # Per bank write bursts
system.mem_ctrls.perBankRdBursts::10            10846                       # Per bank write bursts
system.mem_ctrls.perBankRdBursts::11            12214                       # Per bank write bursts
system.mem_ctrls.perBankRdBursts::12             8895                       # Per bank write bursts
system.mem_ctrls.perBankRdBursts::13            13811                       # Per bank write bursts
system.mem_ctrls.perBankRdBursts::14             5625                       # Per bank write bursts
system.mem_ctrls.perBankRdBursts::15             6957                       # Per bank write bursts
system.mem_ctrls.perBankWrBursts::0              7301                       # Per bank write bursts
system.mem_ctrls.perBankWrBursts::1              4471                       # Per bank write bursts
system.mem_ctrls.perBankWrBursts::2              9041                       # Per bank write bursts
system.mem_ctrls.perBankWrBursts::3              8061                       # Per bank write bursts
system.mem_ctrls.perBankWrBursts::4              7860                       # Per bank write bursts
system.mem_ctrls.perBankWrBursts::5              9781                       # Per bank write bursts
system.mem_ctrls.perBankWrBursts::6              7627                       # Per bank write bursts
system.mem_ctrls.perBankWrBursts::7              7022                       # Per bank write bursts
system.mem_ctrls.perBankWrBursts::8             10834                       # Per bank write bursts
system.mem_ctrls.perBankWrBursts::9              8569                       # Per bank write bursts
system.mem_ctrls.perBankWrBursts::10             8159                       # Per bank write bursts
system.mem_ctrls.perBankWrBursts::11             8151                       # Per bank write bursts
system.mem_ctrls.perBankWrBursts::12             5492                       # Per bank write bursts
system.mem_ctrls.perBankWrBursts::13            10138                       # Per bank write bursts
system.mem_ctrls.perBankWrBursts::14             3232                       # Per bank write bursts
system.mem_ctrls.perBankWrBursts::15             5782                       # Per bank write bursts
system.mem_ctrls.avgRdQLen                       1.08                       # Average read queue length when enqueuing
system.mem_ctrls.avgWrQLen                      25.66                       # Average write queue length when enqueuing
system.mem_ctrls.totQLat                   2041291500                       # Total ticks spent queuing
system.mem_ctrls.totBusLat                  746640000                       # Total ticks spent in databus transfers
system.mem_ctrls.totMemAccLat              4841191500                       # Total ticks spent from burst creation until serviced by the DRAM
system.mem_ctrls.avgQLat                     13669.85                       # Average queueing delay per DRAM burst
system.mem_ctrls.avgBusLat                    5000.00                       # Average bus latency per DRAM burst
system.mem_ctrls.avgMemAccLat                32419.85                       # Average memory access latency per DRAM burst
system.mem_ctrls.numRdRetry                         0                       # Number of times read queue was full causing retry
system.mem_ctrls.numWrRetry                         0                       # Number of times write queue was full causing retry
system.mem_ctrls.readRowHits                   105681                       # Number of row buffer hits during reads
system.mem_ctrls.writeRowHits                   81999                       # Number of row buffer hits during writes
system.mem_ctrls.readRowHitRate                 70.77                       # Row buffer hit rate for reads
system.mem_ctrls.writeRowHitRate                67.47                       # Row buffer hit rate for writes
system.mem_ctrls.readPktSize::0                     0                       # Read request sizes (log2)
system.mem_ctrls.readPktSize::1                     0                       # Read request sizes (log2)
system.mem_ctrls.readPktSize::2                     0                       # Read request sizes (log2)
system.mem_ctrls.readPktSize::3                     0                       # Read request sizes (log2)
system.mem_ctrls.readPktSize::4                     0                       # Read request sizes (log2)
system.mem_ctrls.readPktSize::5                     0                       # Read request sizes (log2)
system.mem_ctrls.readPktSize::6                159702                       # Read request sizes (log2)
system.mem_ctrls.writePktSize::0                    0                       # Write request sizes (log2)
system.mem_ctrls.writePktSize::1                    0                       # Write request sizes (log2)
system.mem_ctrls.writePktSize::2                    0                       # Write request sizes (log2)
system.mem_ctrls.writePktSize::3                    0                       # Write request sizes (log2)
system.mem_ctrls.writePktSize::4                    0                       # Write request sizes (log2)
system.mem_ctrls.writePktSize::5                    0                       # Write request sizes (log2)
system.mem_ctrls.writePktSize::6               123556                       # Write request sizes (log2)
system.mem_ctrls.rdQLenPdf::0                  136884                       # What read queue length does an incoming req see
system.mem_ctrls.rdQLenPdf::1                   12146                       # What read queue length does an incoming req see
system.mem_ctrls.rdQLenPdf::2                     298                       # What read queue length does an incoming req see
system.mem_ctrls.rdQLenPdf::3                       0                       # What read queue length does an incoming req see
system.mem_ctrls.rdQLenPdf::4                       0                       # What read queue length does an incoming req see
system.mem_ctrls.rdQLenPdf::5                       0                       # What read queue length does an incoming req see
system.mem_ctrls.rdQLenPdf::6                       0                       # What read queue length does an incoming req see
system.mem_ctrls.rdQLenPdf::7                       0                       # What read queue length does an incoming req see
system.mem_ctrls.rdQLenPdf::8                       0                       # What read queue length does an incoming req see
system.mem_ctrls.rdQLenPdf::9                       0                       # What read queue length does an incoming req see
system.mem_ctrls.rdQLenPdf::10                      0                       # What read queue length does an incoming req see
system.mem_ctrls.rdQLenPdf::11                      0                       # What read queue length does an incoming req see
system.mem_ctrls.rdQLenPdf::12                      0                       # What read queue length does an incoming req see
system.mem_ctrls.rdQLenPdf::13                      0                       # What read queue length does an incoming req see
system.mem_ctrls.rdQLenPdf::14                      0                       # What read queue length does an incoming req see
system.mem_ctrls.rdQLenPdf::15                      0                       # What read queue length does an incoming req see
system.mem_ctrls.rdQLenPdf::16                      0                       # What read queue length does an incoming req see
system.mem_ctrls.rdQLenPdf::17                      0                       # What read queue length does an incoming req see
system.mem_ctrls.rdQLenPdf::18                      0                       # What read queue length does an incoming req see
system.mem_ctrls.rdQLenPdf::19                      0                       # What read queue length does an incoming req see
system.mem_ctrls.rdQLenPdf::20                      0                       # What read queue length does an incoming req see
system.mem_ctrls.rdQLenPdf::21                      0                       # What read queue length does an incoming req see
system.mem_ctrls.rdQLenPdf::22                      0                       # What read queue length does an incoming req see
system.mem_ctrls.rdQLenPdf::23                      0                       # What read queue length does an incoming req see
system.mem_ctrls.rdQLenPdf::24                      0                       # What read queue length does an incoming req see
system.mem_ctrls.rdQLenPdf::25                      0                       # What read queue length does an incoming req see
system.mem_ctrls.rdQLenPdf::26                      0                       # What read queue length does an incoming req see
system.mem_ctrls.rdQLenPdf::27                      0                       # What read queue length does an incoming req see
system.mem_ctrls.rdQLenPdf::28                      0                       # What read queue length does an incoming req see
system.mem_ctrls.rdQLenPdf::29                      0                       # What read queue length does an incoming req see
system.mem_ctrls.rdQLenPdf::30                      0                       # What read queue length does an incoming req see
system.mem_ctrls.rdQLenPdf::31                      0                       # What read queue length does an incoming req see
system.mem_ctrls.wrQLenPdf::0                       1                       # What write queue length does an incoming req see
system.mem_ctrls.wrQLenPdf::1                       1                       # What write queue length does an incoming req see
system.mem_ctrls.wrQLenPdf::2                       1                       # What write queue length does an incoming req see
system.mem_ctrls.wrQLenPdf::3                       1                       # What write queue length does an incoming req see
system.mem_ctrls.wrQLenPdf::4                       1                       # What write queue length does an incoming req see
system.mem_ctrls.wrQLenPdf::5                       1                       # What write queue length does an incoming req see
system.mem_ctrls.wrQLenPdf::6                       1                       # What write queue length does an incoming req see
system.mem_ctrls.wrQLenPdf::7                       1                       # What write queue length does an incoming req see
system.mem_ctrls.wrQLenPdf::8                       1                       # What write queue length does an incoming req see
system.mem_ctrls.wrQLenPdf::9                       1                       # What write queue length does an incoming req see
system.mem_ctrls.wrQLenPdf::10                      1                       # What write queue length does an incoming req see
system.mem_ctrls.wrQLenPdf::11                      1                       # What write queue length does an incoming req see
system.mem_ctrls.wrQLenPdf::12                      1                       # What write queue length does an incoming req see
system.mem_ctrls.wrQLenPdf::13                      1                       # What write queue length does an incoming req see
system.mem_ctrls.wrQLenPdf::14                      1                       # What write queue length does an incoming req see
system.mem_ctrls.wrQLenPdf::15                    701                       # What write queue length does an incoming req see
system.mem_ctrls.wrQLenPdf::16                    799                       # What write queue length does an incoming req see
system.mem_ctrls.wrQLenPdf::17                   6839                       # What write queue length does an incoming req see
system.mem_ctrls.wrQLenPdf::18                   7500                       # What write queue length does an incoming req see
system.mem_ctrls.wrQLenPdf::19                   7612                       # What write queue length does an incoming req see
system.mem_ctrls.wrQLenPdf::20                   7551                       # What write queue length does an incoming req see
system.mem_ctrls.wrQLenPdf::21                   7571                       # What write queue length does an incoming req see
system.mem_ctrls.wrQLenPdf::22                   7633                       # What write queue length does an incoming req see
system.mem_ctrls.wrQLenPdf::23                   7557                       # What write queue length does an incoming req see
system.mem_ctrls.wrQLenPdf::24                   7565                       # What write queue length does an incoming req see
system.mem_ctrls.wrQLenPdf::25                   7542                       # What write queue length does an incoming req see
system.mem_ctrls.wrQLenPdf::26                   7588                       # What write queue length does an incoming req see
system.mem_ctrls.wrQLenPdf::27                   7532                       # What write queue length does an incoming req see
system.mem_ctrls.wrQLenPdf::28                   7553                       # What write queue length does an incoming req see
system.mem_ctrls.wrQLenPdf::29                   7526                       # What write queue length does an incoming req see
system.mem_ctrls.wrQLenPdf::30                   7486                       # What write queue length does an incoming req see
system.mem_ctrls.wrQLenPdf::31                   7482                       # What write queue length does an incoming req see
system.mem_ctrls.wrQLenPdf::32                   7480                       # What write queue length does an incoming req see
system.mem_ctrls.wrQLenPdf::33                      6                       # What write queue length does an incoming req see
system.mem_ctrls.wrQLenPdf::34                      2                       # What write queue length does an incoming req see
system.mem_ctrls.wrQLenPdf::35                      1                       # What write queue length does an incoming req see
system.mem_ctrls.wrQLenPdf::36                      0                       # What write queue length does an incoming req see
system.mem_ctrls.wrQLenPdf::37                      0                       # What write queue length does an incoming req see
system.mem_ctrls.wrQLenPdf::38                      0                       # What write queue length does an incoming req see
system.mem_ctrls.wrQLenPdf::39                      0                       # What write queue length does an incoming req see
system.mem_ctrls.wrQLenPdf::40                      0                       # What write queue length does an incoming req see
system.mem_ctrls.wrQLenPdf::41                      0                       # What write queue length does an incoming req see
system.mem_ctrls.wrQLenPdf::42                      0                       # What write queue length does an incoming req see
system.mem_ctrls.wrQLenPdf::43                      0                       # What write queue length does an incoming req see
system.mem_ctrls.wrQLenPdf::44                      0                       # What write queue length does an incoming req see
system.mem_ctrls.wrQLenPdf::45                      0                       # What write queue length does an incoming req see
system.mem_ctrls.wrQLenPdf::46                      0                       # What write queue length does an incoming req see
system.mem_ctrls.wrQLenPdf::47                      0                       # What write queue length does an incoming req see
system.mem_ctrls.wrQLenPdf::48                      0                       # What write queue length does an incoming req see
system.mem_ctrls.wrQLenPdf::49                      0                       # What write queue length does an incoming req see
system.mem_ctrls.wrQLenPdf::50                      0                       # What write queue length does an incoming req see
system.mem_ctrls.wrQLenPdf::51                      0                       # What write queue length does an incoming req see
system.mem_ctrls.wrQLenPdf::52                      0                       # What write queue length does an incoming req see
system.mem_ctrls.wrQLenPdf::53                      0                       # What write queue length does an incoming req see
system.mem_ctrls.wrQLenPdf::54                      0                       # What write queue length does an incoming req see
system.mem_ctrls.wrQLenPdf::55                      0                       # What write queue length does an incoming req see
system.mem_ctrls.wrQLenPdf::56                      0                       # What write queue length does an incoming req see
system.mem_ctrls.wrQLenPdf::57                      0                       # What write queue length does an incoming req see
system.mem_ctrls.wrQLenPdf::58                      0                       # What write queue length does an incoming req see
system.mem_ctrls.wrQLenPdf::59                      0                       # What write queue length does an incoming req see
system.mem_ctrls.wrQLenPdf::60                      0                       # What write queue length does an incoming req see
system.mem_ctrls.wrQLenPdf::61                      0                       # What write queue length does an incoming req see
system.mem_ctrls.wrQLenPdf::62                      0                       # What write queue length does an incoming req see
system.mem_ctrls.wrQLenPdf::63                      0                       # What write queue length does an incoming req see
system.mem_ctrls.bytesPerActivate::samples        83159                       # Bytes accessed per row activation
system.mem_ctrls.bytesPerActivate::mean    208.428865                       # Bytes accessed per row activation
system.mem_ctrls.bytesPerActivate::gmean   140.175126                       # Bytes accessed per row activation
system.mem_ctrls.bytesPerActivate::stdev   224.703833                       # Bytes accessed per row activation
system.mem_ctrls.bytesPerActivate::0-127        35275     42.42%     42.42% # Bytes accessed per row activation
system.mem_ctrls.bytesPerActivate::128-255        24750     29.76%     72.18% # Bytes accessed per row activation
system.mem_ctrls.bytesPerActivate::256-383        10023     12.05%     84.23% # Bytes accessed per row activation
system.mem_ctrls.bytesPerActivate::384-511         4733      5.69%     89.93% # Bytes accessed per row activation
system.mem_ctrls.bytesPerActivate::512-639         2534      3.05%     92.97% # Bytes accessed per row activation
system.mem_ctrls.bytesPerActivate::640-767         1493      1.80%     94.77% # Bytes accessed per row activation
system.mem_ctrls.bytesPerActivate::768-895          943      1.13%     95.90% # Bytes accessed per row activation
system.mem_ctrls.bytesPerActivate::896-1023          577      0.69%     96.60% # Bytes accessed per row activation
system.mem_ctrls.bytesPerActivate::1024-1151         2831      3.40%    100.00% # Bytes accessed per row activation
system.mem_ctrls.bytesPerActivate::total        83159                       # Bytes accessed per row activation
system.mem_ctrls.rdPerTurnAround::samples         7479                       # Reads before turning the bus around for writes
system.mem_ctrls.rdPerTurnAround::mean      19.965637                       # Reads before turning the bus around for writes
system.mem_ctrls.rdPerTurnAround::gmean     18.390439                       # Reads before turning the bus around for writes
system.mem_ctrls.rdPerTurnAround::stdev     12.508698                       # Reads before turning the bus around for writes
system.mem_ctrls.rdPerTurnAround::0-15           1366     18.26%     18.26% # Reads before turning the bus around for writes
system.mem_ctrls.rdPerTurnAround::16-31          5633     75.32%     93.58% # Reads before turning the bus around for writes
system.mem_ctrls.rdPerTurnAround::32-47           288      3.85%     97.43% # Reads before turning the bus around for writes
system.mem_ctrls.rdPerTurnAround::48-63            94      1.26%     98.69% # Reads before turning the bus around for writes
system.mem_ctrls.rdPerTurnAround::64-79            33      0.44%     99.13% # Reads before turning the bus around for writes
system.mem_ctrls.rdPerTurnAround::80-95            27      0.36%     99.49% # Reads before turning the bus around for writes
system.mem_ctrls.rdPerTurnAround::96-111           12      0.16%     99.65% # Reads before turning the bus around for writes
system.mem_ctrls.rdPerTurnAround::112-127           10      0.13%     99.79% # Reads before turning the bus around for writes
system.mem_ctrls.rdPerTurnAround::128-143            5      0.07%     99.85% # Reads before turning the bus around for writes
system.mem_ctrls.rdPerTurnAround::144-159            6      0.08%     99.93% # Reads before turning the bus around for writes
system.mem_ctrls.rdPerTurnAround::160-175            1      0.01%     99.95% # Reads before turning the bus around for writes
system.mem_ctrls.rdPerTurnAround::176-191            2      0.03%     99.97% # Reads before turning the bus around for writes
system.mem_ctrls.rdPerTurnAround::192-207            1      0.01%     99.99% # Reads before turning the bus around for writes
system.mem_ctrls.rdPerTurnAround::416-431            1      0.01%    100.00% # Reads before turning the bus around for writes
system.mem_ctrls.rdPerTurnAround::total          7479                       # Reads before turning the bus around for writes
system.mem_ctrls.wrPerTurnAround::samples         7479                       # Writes before turning the bus around for reads
system.mem_ctrls.wrPerTurnAround::mean      16.248295                       # Writes before turning the bus around for reads
system.mem_ctrls.wrPerTurnAround::gmean     16.232548                       # Writes before turning the bus around for reads
system.mem_ctrls.wrPerTurnAround::stdev      0.747459                       # Writes before turning the bus around for reads
system.mem_ctrls.wrPerTurnAround::16             6649     88.90%     88.90% # Writes before turning the bus around for reads
system.mem_ctrls.wrPerTurnAround::17               98      1.31%     90.21% # Writes before turning the bus around for reads
system.mem_ctrls.wrPerTurnAround::18              498      6.66%     96.87% # Writes before turning the bus around for reads
system.mem_ctrls.wrPerTurnAround::19              179      2.39%     99.26% # Writes before turning the bus around for reads
system.mem_ctrls.wrPerTurnAround::20               51      0.68%     99.95% # Writes before turning the bus around for reads
system.mem_ctrls.wrPerTurnAround::21                2      0.03%     99.97% # Writes before turning the bus around for reads
system.mem_ctrls.wrPerTurnAround::22                2      0.03%    100.00% # Writes before turning the bus around for reads
system.mem_ctrls.wrPerTurnAround::total          7479                       # Writes before turning the bus around for reads
system.mem_ctrls.bytesReadDRAM                9556992                       # Total number of bytes read from DRAM
system.mem_ctrls.bytesReadWrQ                  663936                       # Total number of bytes read from write queue
system.mem_ctrls.bytesWritten                 7777344                       # Total number of bytes written to DRAM
system.mem_ctrls.bytesReadSys                10220928                       # Total read bytes from the system interface side
system.mem_ctrls.bytesWrittenSys              7907584                       # Total written bytes from the system interface side
system.mem_ctrls.avgRdBW                       784.53                       # Average DRAM read bandwidth in MiByte/s
system.mem_ctrls.avgWrBW                       638.44                       # Average achieved write bandwidth in MiByte/s
system.mem_ctrls.avgRdBWSys                    839.03                       # Average system read bandwidth in MiByte/s
system.mem_ctrls.avgWrBWSys                    649.13                       # Average system write bandwidth in MiByte/s
system.mem_ctrls.peakBW                      12800.00                       # Theoretical peak bandwidth in MiByte/s
system.mem_ctrls.busUtil                        11.12                       # Data bus utilization in percentage
system.mem_ctrls.busUtilRead                     6.13                       # Data bus utilization in percentage for reads
system.mem_ctrls.busUtilWrite                    4.99                       # Data bus utilization in percentage for writes
system.mem_ctrls.totGap                   12181777500                       # Total gap between requests
system.mem_ctrls.avgGap                      43005.94                       # Average gap between requests
system.mem_ctrls.masterReadBytes::.cpu.inst      5088832                       # Per-master bytes read from memory
system.mem_ctrls.masterReadBytes::.cpu.data      4468160                       # Per-master bytes read from memory
system.mem_ctrls.masterWriteBytes::.writebacks      7777344                       # Per-master bytes write to memory
system.mem_ctrls.masterReadRate::.cpu.inst 417741163.906021118164                       # Per-master bytes read from memory rate (Bytes/sec)
[...]
system.cpu.icache.tags.occ_percent::total            1                       # Average percentage of cache occupancy
system.cpu.icache.tags.occ_task_id_blocks::1024          512                       # Occupied blocks per task id
system.cpu.icache.tags.age_task_id_blocks_1024::0          129                       # Occupied blocks per task id
system.cpu.icache.tags.age_task_id_blocks_1024::1          354                       # Occupied blocks per task id
system.cpu.icache.tags.age_task_id_blocks_1024::2           28                       # Occupied blocks per task id
system.cpu.icache.tags.age_task_id_blocks_1024::3            1                       # Occupied blocks per task id
system.cpu.icache.tags.occ_task_id_percent::1024            1                       # Percentage of cache occupancy per task id
system.cpu.icache.tags.tag_accesses         244854502                       # Number of tag accesses
system.cpu.icache.tags.data_accesses        244854502                       # Number of data accesses
system.cpu.dcache.pwrStateResidencyTicks::UNDEFINED 639179718000                       # Cumulative time (in ticks) in various power states
system.cpu.dcache.demand_hits::.cpu.data    167397608                       # number of demand (read+write) hits
system.cpu.dcache.demand_hits::total        167397608                       # number of demand (read+write) hits
system.cpu.dcache.overall_hits::.cpu.data    167397608                       # number of overall hits
system.cpu.dcache.overall_hits::total       167397608                       # number of overall hits
system.cpu.dcache.demand_misses::.cpu.data       547575                       # number of demand (read+write) misses
system.cpu.dcache.demand_misses::total         547575                       # number of demand (read+write) misses
system.cpu.dcache.overall_misses::.cpu.data       547575                       # number of overall misses
system.cpu.dcache.overall_misses::total        547575                       # number of overall misses
system.cpu.dcache.demand_miss_latency::.cpu.data  36530899000                       # number of demand (read+write) miss cycles
system.cpu.dcache.demand_miss_latency::total  36530899000                       # number of demand (read+write) miss cycles
system.cpu.dcache.overall_miss_latency::.cpu.data  36530899000                       # number of overall miss cycles
system.cpu.dcache.overall_miss_latency::total  36530899000                       # number of overall miss cycles
system.cpu.dcache.demand_accesses::.cpu.data    167945183                       # number of demand (read+write) accesses
system.cpu.dcache.demand_accesses::total    167945183                       # number of demand (read+write) accesses
system.cpu.dcache.overall_accesses::.cpu.data    167945183                       # number of overall (read+write) accesses
system.cpu.dcache.overall_accesses::total    167945183                       # number of overall (read+write) accesses
system.cpu.dcache.demand_miss_rate::.cpu.data     0.003260                       # miss rate for demand accesses
system.cpu.dcache.demand_miss_rate::total     0.003260                       # miss rate for demand accesses
system.cpu.dcache.overall_miss_rate::.cpu.data     0.003260                       # miss rate for overall accesses
system.cpu.dcache.overall_miss_rate::total     0.003260                       # miss rate for overall accesses
system.cpu.dcache.demand_avg_miss_latency::.cpu.data 66713.964297                       # average overall miss latency
system.cpu.dcache.demand_avg_miss_latency::total 66713.964297                       # average overall miss latency
system.cpu.dcache.overall_avg_miss_latency::.cpu.data 66713.964297                       # average overall miss latency
system.cpu.dcache.overall_avg_miss_latency::total 66713.964297                       # average overall miss latency
system.cpu.dcache.blocked_cycles::no_mshrs            0                       # number of cycles access was blocked
system.cpu.dcache.blocked_cycles::no_targets            0                       # number of cycles access was blocked
system.cpu.dcache.blocked::no_mshrs                 0                       # number of cycles access was blocked
system.cpu.dcache.blocked::no_targets               0                       # number of cycles access was blocked
system.cpu.dcache.avg_blocked_cycles::no_mshrs          nan                       # average number of cycles each access was blocked
system.cpu.dcache.avg_blocked_cycles::no_targets          nan                       # average number of cycles each access was blocked
system.cpu.dcache.writebacks::.writebacks       206634                       # number of writebacks
system.cpu.dcache.writebacks::total            206634                       # number of writebacks
system.cpu.dcache.demand_mshr_hits::.cpu.data       141630                       # number of demand (read+write) MSHR hits
system.cpu.dcache.demand_mshr_hits::total       141630                       # number of demand (read+write) MSHR hits
system.cpu.dcache.overall_mshr_hits::.cpu.data       141630                       # number of overall MSHR hits
system.cpu.dcache.overall_mshr_hits::total       141630                       # number of overall MSHR hits
system.cpu.dcache.demand_mshr_misses::.cpu.data       405945                       # number of demand (read+write) MSHR misses
system.cpu.dcache.demand_mshr_misses::total       405945                       # number of demand (read+write) MSHR misses
system.cpu.dcache.overall_mshr_misses::.cpu.data       405945                       # number of overall MSHR misses
system.cpu.dcache.overall_mshr_misses::total       405945                       # number of overall MSHR misses
system.cpu.dcache.overall_mshr_uncacheable_misses::.cpu.data         1650                       # number of overall MSHR uncacheable misses
system.cpu.dcache.overall_mshr_uncacheable_misses::total         1650                       # number of overall MSHR uncacheable misses
system.cpu.dcache.demand_mshr_miss_latency::.cpu.data  27195053000                       # number of demand (read+write) MSHR miss cycles
system.cpu.dcache.demand_mshr_miss_latency::total  27195053000                       # number of demand (read+write) MSHR miss cycles
system.cpu.dcache.overall_mshr_miss_latency::.cpu.data  27195053000                       # number of overall MSHR miss cycles
system.cpu.dcache.overall_mshr_miss_latency::total  27195053000                       # number of overall MSHR miss cycles
system.cpu.dcache.overall_mshr_uncacheable_latency::.cpu.data     87652000                       # number of overall MSHR uncacheable cycles
system.cpu.dcache.overall_mshr_uncacheable_latency::total     87652000                       # number of overall MSHR uncacheable cycles
system.cpu.dcache.demand_mshr_miss_rate::.cpu.data     0.002417                       # mshr miss rate for demand accesses
system.cpu.dcache.demand_mshr_miss_rate::total     0.002417                       # mshr miss rate for demand accesses
system.cpu.dcache.overall_mshr_miss_rate::.cpu.data     0.002417                       # mshr miss rate for overall accesses
system.cpu.dcache.overall_mshr_miss_rate::total     0.002417                       # mshr miss rate for overall accesses
system.cpu.dcache.demand_avg_mshr_miss_latency::.cpu.data 66991.964429                       # average overall mshr miss latency
system.cpu.dcache.demand_avg_mshr_miss_latency::total 66991.964429                       # average overall mshr miss latency
system.cpu.dcache.overall_avg_mshr_miss_latency::.cpu.data 66991.964429                       # average overall mshr miss latency
system.cpu.dcache.overall_avg_mshr_miss_latency::total 66991.964429                       # average overall mshr miss latency
system.cpu.dcache.overall_avg_mshr_uncacheable_latency::.cpu.data 53122.424242                       # average overall mshr uncacheable latency
system.cpu.dcache.overall_avg_mshr_uncacheable_latency::total 53122.424242                       # average overall mshr uncacheable latency
system.cpu.dcache.replacements                 407372                       # number of replacements
system.cpu.dcache.ReadReq_hits::.cpu.data    118428780                       # number of ReadReq hits
system.cpu.dcache.ReadReq_hits::total       118428780                       # number of ReadReq hits
system.cpu.dcache.ReadReq_misses::.cpu.data       306609                       # number of ReadReq misses
system.cpu.dcache.ReadReq_misses::total        306609                       # number of ReadReq misses
system.cpu.dcache.ReadReq_miss_latency::.cpu.data  21173784500                       # number of ReadReq miss cycles
system.cpu.dcache.ReadReq_miss_latency::total  21173784500                       # number of ReadReq miss cycles
system.cpu.dcache.ReadReq_accesses::.cpu.data    118735389                       # number of ReadReq accesses(hits+misses)
system.cpu.dcache.ReadReq_accesses::total    118735389                       # number of ReadReq accesses(hits+misses)
system.cpu.dcache.ReadReq_miss_rate::.cpu.data     0.002582                       # miss rate for ReadReq accesses
system.cpu.dcache.ReadReq_miss_rate::total     0.002582                       # miss rate for ReadReq accesses
system.cpu.dcache.ReadReq_avg_miss_latency::.cpu.data 69057.935351                       # average ReadReq miss latency
system.cpu.dcache.ReadReq_avg_miss_latency::total 69057.935351                       # average ReadReq miss latency
system.cpu.dcache.ReadReq_mshr_hits::.cpu.data        34781                       # number of ReadReq MSHR hits
system.cpu.dcache.ReadReq_mshr_hits::total        34781                       # number of ReadReq MSHR hits
system.cpu.dcache.ReadReq_mshr_misses::.cpu.data       271828                       # number of ReadReq MSHR misses
system.cpu.dcache.ReadReq_mshr_misses::total       271828                       # number of ReadReq MSHR misses
system.cpu.dcache.ReadReq_mshr_uncacheable::.cpu.data          445                       # number of ReadReq MSHR uncacheable
system.cpu.dcache.ReadReq_mshr_uncacheable::total          445                       # number of ReadReq MSHR uncacheable
system.cpu.dcache.ReadReq_mshr_miss_latency::.cpu.data  18577922000                       # number of ReadReq MSHR miss cycles
system.cpu.dcache.ReadReq_mshr_miss_latency::total  18577922000                       # number of ReadReq MSHR miss cycles
system.cpu.dcache.ReadReq_mshr_uncacheable_latency::.cpu.data     87652000                       # number of ReadReq MSHR uncacheable cycles
system.cpu.dcache.ReadReq_mshr_uncacheable_latency::total     87652000                       # number of ReadReq MSHR uncacheable cycles
system.cpu.dcache.ReadReq_mshr_miss_rate::.cpu.data     0.002289                       # mshr miss rate for ReadReq accesses
system.cpu.dcache.ReadReq_mshr_miss_rate::total     0.002289                       # mshr miss rate for ReadReq accesses
system.cpu.dcache.ReadReq_avg_mshr_miss_latency::.cpu.data 68344.401607                       # average ReadReq mshr miss latency
system.cpu.dcache.ReadReq_avg_mshr_miss_latency::total 68344.401607                       # average ReadReq mshr miss latency
system.cpu.dcache.ReadReq_avg_mshr_uncacheable_latency::.cpu.data 196970.786517                       # average ReadReq mshr uncacheable latency
system.cpu.dcache.ReadReq_avg_mshr_uncacheable_latency::total 196970.786517                       # average ReadReq mshr uncacheable latency
system.cpu.dcache.WriteReq_hits::.cpu.data     48968828                       # number of WriteReq hits
system.cpu.dcache.WriteReq_hits::total       48968828                       # number of WriteReq hits
system.cpu.dcache.WriteReq_misses::.cpu.data       240966                       # number of WriteReq misses
system.cpu.dcache.WriteReq_misses::total       240966                       # number of WriteReq misses
system.cpu.dcache.WriteReq_miss_latency::.cpu.data  15357114500                       # number of WriteReq miss cycles
system.cpu.dcache.WriteReq_miss_latency::total  15357114500                       # number of WriteReq miss cycles
system.cpu.dcache.WriteReq_accesses::.cpu.data     49209794                       # number of WriteReq accesses(hits+misses)
system.cpu.dcache.WriteReq_accesses::total     49209794                       # number of WriteReq accesses(hits+misses)
system.cpu.dcache.WriteReq_miss_rate::.cpu.data     0.004897                       # miss rate for WriteReq accesses
system.cpu.dcache.WriteReq_miss_rate::total     0.004897                       # miss rate for WriteReq accesses
system.cpu.dcache.WriteReq_avg_miss_latency::.cpu.data 63731.457965                       # average WriteReq miss latency
system.cpu.dcache.WriteReq_avg_miss_latency::total 63731.457965                       # average WriteReq miss latency
system.cpu.dcache.WriteReq_mshr_hits::.cpu.data       106849                       # number of WriteReq MSHR hits
system.cpu.dcache.WriteReq_mshr_hits::total       106849                       # number of WriteReq MSHR hits
system.cpu.dcache.WriteReq_mshr_misses::.cpu.data       134117                       # number of WriteReq MSHR misses
system.cpu.dcache.WriteReq_mshr_misses::total       134117                       # number of WriteReq MSHR misses
system.cpu.dcache.WriteReq_mshr_uncacheable::.cpu.data         1205                       # number of WriteReq MSHR uncacheable
system.cpu.dcache.WriteReq_mshr_uncacheable::total         1205                       # number of WriteReq MSHR uncacheable
system.cpu.dcache.WriteReq_mshr_miss_latency::.cpu.data   8617131000                       # number of WriteReq MSHR miss cycles
system.cpu.dcache.WriteReq_mshr_miss_latency::total   8617131000                       # number of WriteReq MSHR miss cycles
system.cpu.dcache.WriteReq_mshr_miss_rate::.cpu.data     0.002725                       # mshr miss rate for WriteReq accesses
system.cpu.dcache.WriteReq_mshr_miss_rate::total     0.002725                       # mshr miss rate for WriteReq accesses
system.cpu.dcache.WriteReq_avg_mshr_miss_latency::.cpu.data 64250.848140                       # average WriteReq mshr miss latency
system.cpu.dcache.WriteReq_avg_mshr_miss_latency::total 64250.848140                       # average WriteReq mshr miss latency
system.cpu.dcache.LoadLockedReq_hits::.cpu.data        10761                       # number of LoadLockedReq hits
system.cpu.dcache.LoadLockedReq_hits::total        10761                       # number of LoadLockedReq hits
system.cpu.dcache.LoadLockedReq_misses::.cpu.data         1432                       # number of LoadLockedReq misses
system.cpu.dcache.LoadLockedReq_misses::total         1432                       # number of LoadLockedReq misses
system.cpu.dcache.LoadLockedReq_miss_latency::.cpu.data    107158000                       # number of LoadLockedReq miss cycles
system.cpu.dcache.LoadLockedReq_miss_latency::total    107158000                       # number of LoadLockedReq miss cycles
system.cpu.dcache.LoadLockedReq_accesses::.cpu.data        12193                       # number of LoadLockedReq accesses(hits+misses)
system.cpu.dcache.LoadLockedReq_accesses::total        12193                       # number of LoadLockedReq accesses(hits+misses)
system.cpu.dcache.LoadLockedReq_miss_rate::.cpu.data     0.117444                       # miss rate for LoadLockedReq accesses
system.cpu.dcache.LoadLockedReq_miss_rate::total     0.117444                       # miss rate for LoadLockedReq accesses
system.cpu.dcache.LoadLockedReq_avg_miss_latency::.cpu.data 74831.005587                       # average LoadLockedReq miss latency
system.cpu.dcache.LoadLockedReq_avg_miss_latency::total 74831.005587                       # average LoadLockedReq miss latency
system.cpu.dcache.LoadLockedReq_mshr_hits::.cpu.data            1                       # number of LoadLockedReq MSHR hits
system.cpu.dcache.LoadLockedReq_mshr_hits::total            1                       # number of LoadLockedReq MSHR hits
system.cpu.dcache.LoadLockedReq_mshr_misses::.cpu.data         1431                       # number of LoadLockedReq MSHR misses
system.cpu.dcache.LoadLockedReq_mshr_misses::total         1431                       # number of LoadLockedReq MSHR misses
system.cpu.dcache.LoadLockedReq_mshr_miss_latency::.cpu.data    105665000                       # number of LoadLockedReq MSHR miss cycles
system.cpu.dcache.LoadLockedReq_mshr_miss_latency::total    105665000                       # number of LoadLockedReq MSHR miss cycles
system.cpu.dcache.LoadLockedReq_mshr_miss_rate::.cpu.data     0.117362                       # mshr miss rate for LoadLockedReq accesses
system.cpu.dcache.LoadLockedReq_mshr_miss_rate::total     0.117362                       # mshr miss rate for LoadLockedReq accesses
system.cpu.dcache.LoadLockedReq_avg_mshr_miss_latency::.cpu.data 73839.972048                       # average LoadLockedReq mshr miss latency
system.cpu.dcache.LoadLockedReq_avg_mshr_miss_latency::total 73839.972048                       # average LoadLockedReq mshr miss latency
system.cpu.dcache.StoreCondReq_hits::.cpu.data        12171                       # number of StoreCondReq hits
system.cpu.dcache.StoreCondReq_hits::total        12171                       # number of StoreCondReq hits
system.cpu.dcache.StoreCondReq_accesses::.cpu.data        12171                       # number of StoreCondReq accesses(hits+misses)
system.cpu.dcache.StoreCondReq_accesses::total        12171                       # number of StoreCondReq accesses(hits+misses)
system.cpu.dcache.tags.pwrStateResidencyTicks::UNDEFINED 639179718000                       # Cumulative time (in ticks) in various power states
system.cpu.dcache.tags.tagsinuse                 1024                       # Cycle average of tags in use
system.cpu.dcache.tags.total_refs           167877635                       # Total number of references to valid blocks.
system.cpu.dcache.tags.sampled_refs            408396                       # Sample count of references to valid blocks.
system.cpu.dcache.tags.avg_refs            411.065816                       # Average number of references to valid blocks.
system.cpu.dcache.tags.warmup_cycle                 0                       # Cycle when the warmup percentage was hit.
system.cpu.dcache.tags.occ_blocks::.cpu.data         1024                       # Average occupied blocks per requestor
system.cpu.dcache.tags.occ_percent::.cpu.data            1                       # Average percentage of cache occupancy
system.cpu.dcache.tags.occ_percent::total            1                       # Average percentage of cache occupancy
system.cpu.dcache.tags.occ_task_id_blocks::1024         1024                       # Occupied blocks per task id
system.cpu.dcache.tags.age_task_id_blocks_1024::0           10                       # Occupied blocks per task id
system.cpu.dcache.tags.age_task_id_blocks_1024::1           97                       # Occupied blocks per task id
system.cpu.dcache.tags.age_task_id_blocks_1024::2          869                       # Occupied blocks per task id
system.cpu.dcache.tags.age_task_id_blocks_1024::3           38                       # Occupied blocks per task id
system.cpu.dcache.tags.age_task_id_blocks_1024::4           10                       # Occupied blocks per task id
system.cpu.dcache.tags.occ_task_id_percent::1024            1                       # Percentage of cache occupancy per task id
system.cpu.dcache.tags.tag_accesses         336346466                       # Number of tag accesses
system.cpu.dcache.tags.data_accesses        336346466                       # Number of data accesses

---------- End Simulation Statistics   ----------
