
---------- Begin Simulation Statistics ----------
final_tick                               2542212607500                       # Number of ticks from beginning of simulation (restored from checkpoints and never reset)
host_inst_rate                                 229563                       # Simulator instruction rate (inst/s)
host_mem_usage                                 740736                       # Number of bytes of host memory used
host_op_rate                                   229561                       # Simulator op (including micro ops) rate (op/s)
host_seconds                                    18.29                       # Real time elapsed on the host
host_tick_rate                              667220264                       # Simulator tick rate (ticks/s)
sim_freq                                 1000000000000                       # Frequency of simulated ticks
sim_insts                                     4198427                       # Number of instructions simulated
sim_ops                                       4198427                       # Number of ops (including micro ops) simulated
sim_seconds                                  0.012203                       # Number of seconds simulated
sim_ticks                                 12202762500                       # Number of ticks simulated
system.cpu.branchPred.BTBCorrect                    0                       # Number of correct BTB predictions (this stat may not work properly.
system.cpu.branchPred.BTBHitPct             51.509758                       # BTB Hit Percentage
system.cpu.branchPred.BTBHits                  386061                       # Number of BTB hits
system.cpu.branchPred.BTBLookups               749491                       # Number of BTB lookups
system.cpu.branchPred.RASInCorrect               2656                       # Number of incorrect RAS predictions.
system.cpu.branchPred.condIncorrect            118113                       # Number of conditional branches incorrect
system.cpu.branchPred.condPredicted            928257                       # Number of conditional branches predicted
system.cpu.branchPred.indirectHits              31491                       # Number of indirect target hits.
system.cpu.branchPred.indirectLookups          197919                       # Number of indirect predictor lookups.
system.cpu.branchPred.indirectMisses           166428                       # Number of indirect misses.
system.cpu.branchPred.lookups                 1133993                       # Number of BP lookups
system.cpu.branchPred.usedRAS                   71682                       # Number of times the RAS was used to get a target.
system.cpu.branchPredindirectMispredicted        29921                       # Number of mispredicted indirect branches.
system.cpu.committedInsts                     4198427                       # Number of instructions committed
system.cpu.committedOps                       4198427                       # Number of ops (including micro ops) committed
system.cpu.cpi                               5.809770                       # CPI: cycles per instruction
system.cpu.discardedOps                        314163                       # Number of ops (including micro ops) which were discarded before commit
system.cpu.dtb.data_accesses                   620876                       # DTB accesses
system.cpu.dtb.data_acv                           130                       # DTB access violations
system.cpu.dtb.data_hits                      1481902                       # DTB hits
system.cpu.dtb.data_misses                       8190                       # DTB misses
system.cpu.dtb.fetch_accesses                       0                       # ITB accesses
system.cpu.dtb.fetch_acv                            0                       # ITB acv
system.cpu.dtb.fetch_hits                           0                       # ITB hits
system.cpu.dtb.fetch_misses                         0                       # ITB misses
system.cpu.dtb.read_accesses                   418342                       # DTB read accesses
system.cpu.dtb.read_acv                            43                       # DTB read access violations
system.cpu.dtb.read_hits                       876976                       # DTB read hits
system.cpu.dtb.read_misses                       7348                       # DTB read misses
system.cpu.dtb.write_accesses                  202534                       # DTB write accesses
system.cpu.dtb.write_acv                           87                       # DTB write access violations
system.cpu.dtb.write_hits                      604926                       # DTB write hits
system.cpu.dtb.write_misses                       842                       # DTB write misses
system.cpu.fetch2.amo_instructions                  0                       # Number of memory atomic instructions successfully decoded
system.cpu.fetch2.fp_instructions               18209                       # Number of floating point instructions successfully decoded
system.cpu.fetch2.int_instructions            3675359                       # Number of integer instructions successfully decoded
system.cpu.fetch2.load_instructions           1168143                       # Number of memory load instructions successfully decoded
system.cpu.fetch2.store_instructions           688634                       # Number of memory store instructions successfully decoded
system.cpu.fetch2.vec_instructions                  0                       # Number of SIMD instructions successfully decoded
system.cpu.idleCycles                        17109968                       # Total number of cycles that the object has spent stopped
system.cpu.ipc                               0.172124                       # IPC: instructions per cycle
system.cpu.itb.data_accesses                        0                       # DTB accesses
system.cpu.itb.data_acv                             0                       # DTB access violations
system.cpu.itb.data_hits                            0                       # DTB hits
system.cpu.itb.data_misses                          0                       # DTB misses
system.cpu.itb.fetch_accesses                 1009787                       # ITB accesses
system.cpu.itb.fetch_acv                          627                       # ITB acv
system.cpu.itb.fetch_hits                     1003374                       # ITB hits
system.cpu.itb.fetch_misses                      6413                       # ITB misses
system.cpu.itb.read_accesses                        0                       # DTB read accesses
system.cpu.itb.read_acv                             0                       # DTB read access violations
system.cpu.itb.read_hits                            0                       # DTB read hits
system.cpu.itb.read_misses                          0                       # DTB read misses
system.cpu.itb.write_accesses                       0                       # DTB write accesses
system.cpu.itb.write_acv                            0                       # DTB write access violations
system.cpu.itb.write_hits                           0                       # DTB write hits
system.cpu.itb.write_misses                         0                       # DTB write misses
system.cpu.kern.callpal::swpctx                   574      9.47%      9.47% # number of callpals executed
system.cpu.kern.callpal::tbi                       25      0.41%      9.89% # number of callpals executed
system.cpu.kern.callpal::swpipl                  4193     69.20%     79.09% # number of callpals executed
system.cpu.kern.callpal::rdps                      50      0.83%     79.91% # number of callpals executed
system.cpu.kern.callpal::wrusp                      4      0.07%     79.98% # number of callpals executed
system.cpu.kern.callpal::rdusp                      3      0.05%     80.03% # number of callpals executed
system.cpu.kern.callpal::rti                      897     14.80%     94.83% # number of callpals executed
system.cpu.kern.callpal::callsys                  235      3.88%     98.71% # number of callpals executed
system.cpu.kern.callpal::imb                       78      1.29%    100.00% # number of callpals executed
system.cpu.kern.callpal::total                   6059                       # number of callpals executed
system.cpu.kern.inst.arm                            0                       # number of arm instructions executed
system.cpu.kern.inst.hwrei                      14403                       # number of hwrei instructions executed
system.cpu.kern.inst.quiesce                        9                       # number of quiesce instructions executed
system.cpu.kern.ipl_count::0                     2416     47.30%     47.30% # number of times we switched to this ipl
system.cpu.kern.ipl_count::21                       5      0.10%     47.40% # number of times we switched to this ipl
system.cpu.kern.ipl_count::22                      13      0.25%     47.65% # number of times we switched to this ipl
system.cpu.kern.ipl_count::31                    2674     52.35%    100.00% # number of times we switched to this ipl
system.cpu.kern.ipl_count::total                 5108                       # number of times we switched to this ipl
system.cpu.kern.ipl_good::0                      2403     49.81%     49.81% # number of times we switched to this ipl from a different ipl
system.cpu.kern.ipl_good::21                        5      0.10%     49.92% # number of times we switched to this ipl from a different ipl
system.cpu.kern.ipl_good::22                       13      0.27%     50.19% # number of times we switched to this ipl from a different ipl
system.cpu.kern.ipl_good::31                     2403     49.81%    100.00% # number of times we switched to this ipl from a different ipl
system.cpu.kern.ipl_good::total                  4824                       # number of times we switched to this ipl from a different ipl
system.cpu.kern.ipl_ticks::0              11251728500     92.18%     92.18% # number of cycles we spent at this ipl
system.cpu.kern.ipl_ticks::21                 9277500      0.08%     92.25% # number of cycles we spent at this ipl
system.cpu.kern.ipl_ticks::22                19443500      0.16%     92.41% # number of cycles we spent at this ipl
system.cpu.kern.ipl_ticks::31               926316500      7.59%    100.00% # number of cycles we spent at this ipl
system.cpu.kern.ipl_ticks::total          12206766000                       # number of cycles we spent at this ipl
system.cpu.kern.ipl_used::0                  0.994619                       # fraction of swpipl calls that actually changed the ipl
system.cpu.kern.ipl_used::21                        1                       # fraction of swpipl calls that actually changed the ipl
system.cpu.kern.ipl_used::22                        1                       # fraction of swpipl calls that actually changed the ipl
system.cpu.kern.ipl_used::31                 0.898654                       # fraction of swpipl calls that actually changed the ipl
system.cpu.kern.ipl_used::total              0.944401                       # fraction of swpipl calls that actually changed the ipl
system.cpu.kern.mode_good::kernel                 871                      
system.cpu.kern.mode_good::user                   871                      
system.cpu.kern.mode_good::idle                     0                      
system.cpu.kern.mode_switch::kernel              1471                       # number of protection mode switches
system.cpu.kern.mode_switch::user                 871                       # number of protection mode switches
system.cpu.kern.mode_switch::idle                   0                       # number of protection mode switches
system.cpu.kern.mode_switch_good::kernel     0.592114                       # fraction of useful protection mode switches
system.cpu.kern.mode_switch_good::user              1                       # fraction of useful protection mode switches
system.cpu.kern.mode_switch_good::idle            nan                       # fraction of useful protection mode switches
system.cpu.kern.mode_switch_good::total      0.743809                       # fraction of useful protection mode switches
system.cpu.kern.mode_ticks::kernel         8220453000     67.34%     67.34% # number of ticks spent at the given mode
system.cpu.kern.mode_ticks::user           3986314000     32.66%    100.00% # number of ticks spent at the given mode
system.cpu.kern.mode_ticks::idle                    0      0.00%    100.00% # number of ticks spent at the given mode
system.cpu.kern.swap_context                      574                       # number of times the context was actually changed
system.cpu.numCycles                         24391896                       # number of cpu cycles simulated
system.cpu.numFetchSuspends                         9                       # Number of times Execute suspended instruction fetching
system.cpu.numWorkItemsCompleted                    0                       # number of work items this cpu completed
system.cpu.numWorkItemsStarted                      0                       # number of work items this cpu started
system.cpu.op_class_0::No_OpClass               85459      2.04%      2.04% # Class of committed instruction
system.cpu.op_class_0::IntAlu                 2542807     60.57%     62.60% # Class of committed instruction
system.cpu.op_class_0::IntMult                   3684      0.09%     62.69% # Class of committed instruction
system.cpu.op_class_0::IntDiv                       0      0.00%     62.69% # Class of committed instruction
system.cpu.op_class_0::FloatAdd                  8286      0.20%     62.89% # Class of committed instruction
system.cpu.op_class_0::FloatCmp                     0      0.00%     62.89% # Class of committed instruction
system.cpu.op_class_0::FloatCvt                     0      0.00%     62.89% # Class of committed instruction
system.cpu.op_class_0::FloatMult                    0      0.00%     62.89% # Class of committed instruction
system.cpu.op_class_0::FloatMultAcc                 0      0.00%     62.89% # Class of committed instruction
system.cpu.op_class_0::FloatDiv                  1593      0.04%     62.92% # Class of committed instruction
system.cpu.op_class_0::FloatMisc                    0      0.00%     62.92% # Class of committed instruction
system.cpu.op_class_0::FloatSqrt                    0      0.00%     62.92% # Class of committed instruction
system.cpu.op_class_0::SimdAdd                      0      0.00%     62.92% # Class of committed instruction
system.cpu.op_class_0::SimdAddAcc                   0      0.00%     62.92% # Class of committed instruction
system.cpu.op_class_0::SimdAlu                      0      0.00%     62.92% # Class of committed instruction
system.cpu.op_class_0::SimdCmp                      0      0.00%     62.92% # Class of committed instruction
system.cpu.op_class_0::SimdCvt                      0      0.00%     62.92% # Class of committed instruction
system.cpu.op_class_0::SimdMisc                     0      0.00%     62.92% # Class of committed instruction
system.cpu.op_class_0::SimdMult                     0      0.00%     62.92% # Class of committed instruction
system.cpu.op_class_0::SimdMultAcc                  0      0.00%     62.92% # Class of committed instruction
system.cpu.op_class_0::SimdShift                    0      0.00%     62.92% # Class of committed instruction
system.cpu.op_class_0::SimdShiftAcc                 0      0.00%     62.92% # Class of committed instruction
system.cpu.op_class_0::SimdDiv                      0      0.00%     62.92% # Class of committed instruction
system.cpu.op_class_0::SimdSqrt                     0      0.00%     62.92% # Class of committed instruction
system.cpu.op_class_0::SimdFloatAdd                 0      0.00%     62.92% # Class of committed instruction
system.cpu.op_class_0::SimdFloatAlu                 0      0.00%     62.92% # Class of committed instruction
system.cpu.op_class_0::SimdFloatCmp                 0      0.00%     62.92% # Class of committed instruction
system.cpu.op_class_0::SimdFloatCvt                 0      0.00%     62.92% # Class of committed instruction
system.cpu.op_class_0::SimdFloatDiv                 0      0.00%     62.92% # Class of committed instruction
system.cpu.op_class_0::SimdFloatMisc                0      0.00%     62.92% # Class of committed instruction
system.cpu.op_class_0::SimdFloatMult                0      0.00%     62.92% # Class of committed instruction
system.cpu.op_class_0::SimdFloatMultAcc             0      0.00%     62.92% # Class of committed instruction
system.cpu.op_class_0::SimdFloatSqrt                0      0.00%     62.92% # Class of committed instruction
system.cpu.op_class_0::SimdReduceAdd                0      0.00%     62.92% # Class of committed instruction
system.cpu.op_class_0::SimdReduceAlu                0      0.00%     62.92% # Class of committed instruction
system.cpu.op_class_0::SimdReduceCmp                0      0.00%     62.92% # Class of committed instruction
system.cpu.op_class_0::SimdFloatReduceAdd            0      0.00%     62.92% # Class of committed instruction
system.cpu.op_class_0::SimdFloatReduceCmp            0      0.00%     62.92% # Class of committed instruction
system.cpu.op_class_0::SimdAes                      0      0.00%     62.92% # Class of committed instruction
system.cpu.op_class_0::SimdAesMix                   0      0.00%     62.92% # Class of committed instruction
system.cpu.op_class_0::SimdSha1Hash                 0      0.00%     62.92% # Class of committed instruction
system.cpu.op_class_0::SimdSha1Hash2                0      0.00%     62.92% # Class of committed instruction
system.cpu.op_class_0::SimdSha256Hash               0      0.00%     62.92% # Class of committed instruction
system.cpu.op_class_0::SimdSha256Hash2              0      0.00%     62.92% # Class of committed instruction
system.cpu.op_class_0::SimdShaSigma2                0      0.00%     62.92% # Class of committed instruction
system.cpu.op_class_0::SimdShaSigma3                0      0.00%     62.92% # Class of committed instruction
system.cpu.op_class_0::SimdPredAlu                  0      0.00%     62.92% # Class of committed instruction
system.cpu.op_class_0::MemRead                 839998     20.01%     82.93% # Class of committed instruction
system.cpu.op_class_0::MemWrite                593056     14.13%     97.06% # Class of committed instruction
system.cpu.op_class_0::FloatMemRead              9988      0.24%     97.30% # Class of committed instruction
system.cpu.op_class_0::FloatMemWrite             8788      0.21%     97.50% # Class of committed instruction
system.cpu.op_class_0::IprAccess               104768      2.50%    100.00% # Class of committed instruction
system.cpu.op_class_0::InstPrefetch                 0      0.00%    100.00% # Class of committed instruction
system.cpu.op_class_0::total                  4198427                       # Class of committed instruction
system.cpu.quiesceCycles                        13629                       # Total number of cycles that CPU has spent quiesced or waiting for an interrupt
system.cpu.tickCycles                         7281928                       # Number of cycles that the object actually ticked
system.disk0.dma_read_bytes                         0                       # Number of bytes transfered via DMA reads (not PRD).
system.disk0.dma_read_full_pages                    0                       # Number of full page size DMA reads (not PRD).
system.disk0.dma_read_txs                           0                       # Number of DMA read transactions (not PRD).
system.disk0.dma_write_bytes                    12288                       # Number of bytes transfered via DMA writes.
system.disk0.dma_write_full_pages                   0                       # Number of full page size DMA writes.
system.disk0.dma_write_txs                          3                       # Number of DMA write transactions.
system.disk2.dma_read_bytes                         0                       # Number of bytes transfered via DMA reads (not PRD).
system.disk2.dma_read_full_pages                    0                       # Number of full page size DMA reads (not PRD).
system.disk2.dma_read_txs                           0                       # Number of DMA read transactions (not PRD).
system.disk2.dma_write_bytes                        0                       # Number of bytes transfered via DMA writes.
system.disk2.dma_write_full_pages                   0                       # Number of full page size DMA writes.
system.disk2.dma_write_txs                          0                       # Number of DMA write transactions.
system.membus.snoop_filter.hit_multi_requests          444                       # Number of requests hitting in the snoop filter with multiple (>1) holders of the requested data.
system.membus.snoop_filter.hit_multi_snoops            0                       # Number of snoops hitting in the snoop filter with multiple (>1) holders of the requested data.
system.membus.snoop_filter.hit_single_requests       158391                       # Number of requests hitting in the snoop filter with a single holder of the requested data.
system.membus.snoop_filter.hit_single_snoops            0                       # Number of snoops hitting in the snoop filter with a single holder of the requested data.
system.membus.snoop_filter.tot_requests        318386                       # Total number of requests made to the snoop filter.
system.membus.snoop_filter.tot_snoops               0                       # Total number of snoops made to the snoop filter.
system.tsunami.ethernet.coalescedRxDesc           nan                       # average number of RxDesc's coalesced into each post
system.tsunami.ethernet.coalescedRxIdle           nan                       # average number of RxIdle's coalesced into each post
system.tsunami.ethernet.coalescedRxOk             nan                       # average number of RxOk's coalesced into each post
system.tsunami.ethernet.coalescedRxOrn            nan                       # average number of RxOrn's coalesced into each post
system.tsunami.ethernet.coalescedSwi              nan                       # average number of Swi's coalesced into each post
system.tsunami.ethernet.coalescedTotal            nan                       # average number of interrupts coalesced into each post
system.tsunami.ethernet.coalescedTxDesc           nan                       # average number of TxDesc's coalesced into each post
system.tsunami.ethernet.coalescedTxIdle           nan                       # average number of TxIdle's coalesced into each post
system.tsunami.ethernet.coalescedTxOk             nan                       # average number of TxOk's coalesced into each post
system.tsunami.ethernet.descDMAReads                0                       # Number of descriptors the device read w/ DMA
system.tsunami.ethernet.descDMAWrites               0                       # Number of descriptors the device wrote w/ DMA
system.tsunami.ethernet.descDmaReadBytes            0                       # number of descriptor bytes read w/ DMA
system.tsunami.ethernet.descDmaWriteBytes            0                       # number of descriptor bytes write w/ DMA
system.tsunami.ethernet.droppedPackets              0                       # number of packets dropped
system.tsunami.ethernet.postedInterrupts            0                       # number of posts to CPU
system.tsunami.ethernet.postedRxDesc                0                       # number of RxDesc interrupts posted to CPU
system.tsunami.ethernet.postedRxIdle                0                       # number of rxIdle interrupts posted to CPU
system.tsunami.ethernet.postedRxOk                  0                       # number of RxOk interrupts posted to CPU
system.tsunami.ethernet.postedRxOrn                 0                       # number of RxOrn posted to CPU
system.tsunami.ethernet.postedSwi                   0                       # number of software interrupts posted to CPU
system.tsunami.ethernet.postedTxDesc                0                       # number of TxDesc interrupts posted to CPU
system.tsunami.ethernet.postedTxIdle                0                       # number of TxIdle interrupts posted to CPU
system.tsunami.ethernet.postedTxOk                  0                       # number of TxOk interrupts posted to CPU
system.tsunami.ethernet.totalRxDesc                 0                       # total number of RxDesc written to ISR
system.tsunami.ethernet.totalRxIdle                 0                       # total number of RxIdle written to ISR
system.tsunami.ethernet.totalRxOk                   0                       # total number of RxOk written to ISR
system.tsunami.ethernet.totalRxOrn                  0                       # total number of RxOrn written to ISR
system.tsunami.ethernet.totalSwi                    0                       # total number of Swi written to ISR
system.tsunami.ethernet.totalTxDesc                 0                       # total number of TxDesc written to ISR
system.tsunami.ethernet.totalTxIdle                 0                       # total number of TxIdle written to ISR
system.tsunami.ethernet.totalTxOk                   0                       # total number of TxOk written to ISR
system.bridge.pwrStateResidencyTicks::UNDEFINED 2542212607500                       # Cumulative time (in ticks) in various power states
system.voltage_domain.voltage                       1                       # Voltage in Volts
system.iocache.pwrStateResidencyTicks::UNDEFINED 2542212607500                       # Cumulative time (in ticks) in various power states
system.iocache.demand_misses::.tsunami.ide          195                       # number of demand (read+write) misses
system.iocache.demand_misses::total               195                       # number of demand (read+write) misses
system.iocache.overall_misses::.tsunami.ide          195                       # number of overall misses
system.iocache.overall_misses::total              195                       # number of overall misses
system.iocache.demand_miss_latency::.tsunami.ide     22817456                       # number of demand (read+write) miss cycles
system.iocache.demand_miss_latency::total     22817456                       # number of demand (read+write) miss cycles
system.iocache.overall_miss_latency::.tsunami.ide     22817456                       # number of overall miss cycles
system.iocache.overall_miss_latency::total     22817456                       # number of overall miss cycles
system.iocache.demand_accesses::.tsunami.ide          195                       # number of demand (read+write) accesses
system.iocache.demand_accesses::total             195                       # number of demand (read+write) accesses
system.iocache.overall_accesses::.tsunami.ide          195                       # number of overall (read+write) accesses
system.iocache.overall_accesses::total            195                       # number of overall (read+write) accesses
system.iocache.demand_miss_rate::.tsunami.ide            1                       # miss rate for demand accesses
system.iocache.demand_miss_rate::total              1                       # miss rate for demand accesses
system.iocache.overall_miss_rate::.tsunami.ide            1                       # miss rate for overall accesses
system.iocache.overall_miss_rate::total             1                       # miss rate for overall accesses
system.iocache.demand_avg_miss_latency::.tsunami.ide 117012.594872                       # average overall miss latency
system.iocache.demand_avg_miss_latency::total 117012.594872                       # average overall miss latency
system.iocache.overall_avg_miss_latency::.tsunami.ide 117012.594872                       # average overall miss latency
system.iocache.overall_avg_miss_latency::total 117012.594872                       # average overall miss latency
system.iocache.blocked_cycles::no_mshrs             0                       # number of cycles access was blocked
system.iocache.blocked_cycles::no_targets            0                       # number of cycles access was blocked
system.iocache.blocked::no_mshrs                    0                       # number of cycles access was blocked
system.iocache.blocked::no_targets                  0                       # number of cycles access was blocked
system.iocache.avg_blocked_cycles::no_mshrs          nan                       # average number of cycles each access was blocked
system.iocache.avg_blocked_cycles::no_targets          nan                       # average number of cycles each access was blocked
system.iocache.writebacks::.writebacks            176                       # number of writebacks
system.iocache.writebacks::total                  176                       # number of writebacks
system.iocache.demand_mshr_misses::.tsunami.ide          195                       # number of demand (read+write) MSHR misses
system.iocache.demand_mshr_misses::total          195                       # number of demand (read+write) MSHR misses
system.iocache.overall_mshr_misses::.tsunami.ide          195                       # number of overall MSHR misses
system.iocache.overall_mshr_misses::total          195                       # number of overall MSHR misses
system.iocache.demand_mshr_miss_latency::.tsunami.ide     13055489                       # number of demand (read+write) MSHR miss cycles
system.iocache.demand_mshr_miss_latency::total     13055489                       # number of demand (read+write) MSHR miss cycles
system.iocache.overall_mshr_miss_latency::.tsunami.ide     13055489                       # number of overall MSHR miss cycles
system.iocache.overall_mshr_miss_latency::total     13055489                       # number of overall MSHR miss cycles
system.iocache.demand_mshr_miss_rate::.tsunami.ide            1                       # mshr miss rate for demand accesses
system.iocache.demand_mshr_miss_rate::total            1                       # mshr miss rate for demand accesses
system.iocache.overall_mshr_miss_rate::.tsunami.ide            1                       # mshr miss rate for overall accesses
system.iocache.overall_mshr_miss_rate::total            1                       # mshr miss rate for overall accesses
system.iocache.demand_avg_mshr_miss_latency::.tsunami.ide 66951.225641                       # average overall mshr miss latency
system.iocache.demand_avg_mshr_miss_latency::total 66951.225641                       # average overall mshr miss latency
system.iocache.overall_avg_mshr_miss_latency::.tsunami.ide 66951.225641                       # average overall mshr miss latency
system.iocache.overall_avg_mshr_miss_latency::total 66951.225641                       # average overall mshr miss latency
system.iocache.replacements                       179                       # number of replacements
system.iocache.ReadReq_misses::.tsunami.ide            3                       # number of ReadReq misses
system.iocache.ReadReq_misses::total                3                       # number of ReadReq misses
system.iocache.ReadReq_miss_latency::.tsunami.ide       349497                       # number of ReadReq miss cycles
system.iocache.ReadReq_miss_latency::total       349497                       # number of ReadReq miss cycles
system.iocache.ReadReq_accesses::.tsunami.ide            3                       # number of ReadReq accesses(hits+misses)
system.iocache.ReadReq_accesses::total              3                       # number of ReadReq accesses(hits+misses)
system.iocache.ReadReq_miss_rate::.tsunami.ide            1                       # miss rate for ReadReq accesses
system.iocache.ReadReq_miss_rate::total             1                       # miss rate for ReadReq accesses
system.iocache.ReadReq_avg_miss_latency::.tsunami.ide       116499                       # average ReadReq miss latency
system.iocache.ReadReq_avg_miss_latency::total       116499                       # average ReadReq miss latency
system.iocache.ReadReq_mshr_misses::.tsunami.ide            3                       # number of ReadReq MSHR misses
system.iocache.ReadReq_mshr_misses::total            3                       # number of ReadReq MSHR misses
system.iocache.ReadReq_mshr_miss_latency::.tsunami.ide       199497                       # number of ReadReq MSHR miss cycles
system.iocache.ReadReq_mshr_miss_latency::total       199497                       # number of ReadReq MSHR miss cycles
system.iocache.ReadReq_mshr_miss_rate::.tsunami.ide            1                       # mshr miss rate for ReadReq accesses
system.iocache.ReadReq_mshr_miss_rate::total            1                       # mshr miss rate for ReadReq accesses
system.iocache.ReadReq_avg_mshr_miss_latency::.tsunami.ide        66499                       # average ReadReq mshr miss latency
system.iocache.ReadReq_avg_mshr_miss_latency::total        66499                       # average ReadReq mshr miss latency
system.iocache.WriteLineReq_misses::.tsunami.ide          192                       # number of WriteLineReq misses
system.iocache.WriteLineReq_misses::total          192                       # number of WriteLineReq misses
system.iocache.WriteLineReq_miss_latency::.tsunami.ide     22467959                       # number of WriteLineReq miss cycles
system.iocache.WriteLineReq_miss_latency::total     22467959                       # number of WriteLineReq miss cycles
system.iocache.WriteLineReq_accesses::.tsunami.ide          192                       # number of WriteLineReq accesses(hits+misses)
system.iocache.WriteLineReq_accesses::total          192                       # number of WriteLineReq accesses(hits+misses)
system.iocache.WriteLineReq_miss_rate::.tsunami.ide            1                       # miss rate for WriteLineReq accesses
system.iocache.WriteLineReq_miss_rate::total            1                       # miss rate for WriteLineReq accesses
system.iocache.WriteLineReq_avg_miss_latency::.tsunami.ide 117020.619792                       # average WriteLineReq miss latency
system.iocache.WriteLineReq_avg_miss_latency::total 117020.619792                       # average WriteLineReq miss latency
system.iocache.WriteLineReq_mshr_misses::.tsunami.ide          192                       # number of WriteLineReq MSHR misses
system.iocache.WriteLineReq_mshr_misses::total          192                       # number of WriteLineReq MSHR misses
system.iocache.WriteLineReq_mshr_miss_latency::.tsunami.ide     12855992                       # number of WriteLineReq MSHR miss cycles
system.iocache.WriteLineReq_mshr_miss_latency::total     12855992                       # number of WriteLineReq MSHR miss cycles
system.iocache.WriteLineReq_mshr_miss_rate::.tsunami.ide            1                       # mshr miss rate for WriteLineReq accesses
system.iocache.WriteLineReq_mshr_miss_rate::total            1                       # mshr miss rate for WriteLineReq accesses
system.iocache.WriteLineReq_avg_mshr_miss_latency::.tsunami.ide 66958.291667                       # average WriteLineReq mshr miss latency
system.iocache.WriteLineReq_avg_mshr_miss_latency::total 66958.291667                       # average WriteLineReq mshr miss latency
system.iocache.tags.pwrStateResidencyTicks::UNDEFINED 2542212607500                       # Cumulative time (in ticks) in various power states
system.iocache.tags.tagsinuse                3.293149                       # Cycle average of tags in use
system.iocache.tags.total_refs                    179                       # Total number of references to valid blocks.
system.iocache.tags.sampled_refs                  179                       # Sample count of references to valid blocks.
system.iocache.tags.avg_refs                        1                       # Average number of references to valid blocks.
system.iocache.tags.warmup_cycle         2539699935000                       # Cycle when the warmup percentage was hit.
system.iocache.tags.occ_blocks::.tsunami.ide     3.293149                       # Average occupied blocks per requestor
system.iocache.tags.occ_percent::.tsunami.ide     0.205822                       # Average percentage of cache occupancy
system.iocache.tags.occ_percent::total       0.205822                       # Average percentage of cache occupancy
system.iocache.tags.occ_task_id_blocks::1023           16                       # Occupied blocks per task id
system.iocache.tags.age_task_id_blocks_1023::3           16                       # Occupied blocks per task id
system.iocache.tags.occ_task_id_percent::1023            1                       # Percentage of cache occupancy per task id
system.iocache.tags.tag_accesses                 1755                       # Number of tag accesses
system.iocache.tags.data_accesses                1755                       # Number of data accesses
system.membus.pwrStateResidencyTicks::UNDEFINED 2542212607500                       # Cumulative time (in ticks) in various power states
system.membus.trans_dist::ReadReq                 108                       # Transaction distribution
system.membus.trans_dist::ReadResp             130945                       # Transaction distribution
system.membus.trans_dist::WriteReq                100                       # Transaction distribution
system.membus.trans_dist::WriteResp               100                       # Transaction distribution
system.membus.trans_dist::WritebackDirty        34889                       # Transaction distribution
system.membus.trans_dist::WritebackClean        88937                       # Transaction distribution
system.membus.trans_dist::CleanEvict            34543                       # Transaction distribution
system.membus.trans_dist::UpgradeReq               15                       # Transaction distribution
system.membus.trans_dist::ReadExReq             28970                       # Transaction distribution
system.membus.trans_dist::ReadExResp            28970                       # Transaction distribution
system.membus.trans_dist::ReadCleanReq          89527                       # Transaction distribution
system.membus.trans_dist::ReadSharedReq         41312                       # Transaction distribution
system.membus.trans_dist::BadAddressError            2                       # Transaction distribution
system.membus.trans_dist::InvalidateReq           192                       # Transaction distribution
system.membus.pkt_count_system.iocache.mem_side::system.mem_ctrls.port          374                       # Packet count per connected master and slave (bytes)
system.membus.pkt_count_system.iocache.mem_side::total          374                       # Packet count per connected master and slave (bytes)
system.membus.pkt_count_system.cpu.icache.mem_side::system.mem_ctrls.port       267929                       # Packet count per connected master and slave (bytes)
system.membus.pkt_count_system.cpu.icache.mem_side::total       267929                       # Packet count per connected master and slave (bytes)
system.membus.pkt_count_system.cpu.dcache.mem_side::system.bridge.slave          416                       # Packet count per connected master and slave (bytes)
system.membus.pkt_count_system.cpu.dcache.mem_side::system.mem_ctrls.port       209822                       # Packet count per connected master and slave (bytes)
system.membus.pkt_count_system.cpu.dcache.mem_side::system.membus.badaddr_responder.pio            4                       # Packet count per connected master and slave (bytes)
system.membus.pkt_count_system.cpu.dcache.mem_side::total       210242                       # Packet count per connected master and slave (bytes)
system.membus.pkt_count::total                 478545                       # Packet count per connected master and slave (bytes)
system.membus.pkt_size_system.iocache.mem_side::system.mem_ctrls.port        11264                       # Cumulative packet size per connected master and slave (bytes)
system.membus.pkt_size_system.iocache.mem_side::total        11264                       # Cumulative packet size per connected master and slave (bytes)
system.membus.pkt_size_system.cpu.icache.mem_side::system.mem_ctrls.port     11417728                       # Cumulative packet size per connected master and slave (bytes)
system.membus.pkt_size_system.cpu.icache.mem_side::total     11417728                       # Cumulative packet size per connected master and slave (bytes)
system.membus.pkt_size_system.cpu.dcache.mem_side::system.bridge.slave          441                       # Cumulative packet size per connected master and slave (bytes)
system.membus.pkt_size_system.cpu.dcache.mem_side::system.mem_ctrls.port      6719360                       # Cumulative packet size per connected master and slave (bytes)
system.membus.pkt_size_system.cpu.dcache.mem_side::total      6719801                       # Cumulative packet size per connected master and slave (bytes)
system.membus.pkt_size::total                18148793                       # Cumulative packet size per connected master and slave (bytes)
system.membus.snoops                               65                       # Total snoops (count)
system.membus.snoopTraffic                       4160                       # Total snoop traffic (bytes)
system.membus.snoop_fanout::samples            160224                       # Request fanout histogram
system.membus.snoop_fanout::mean             0.002777                       # Request fanout histogram
system.membus.snoop_fanout::stdev            0.052628                       # Request fanout histogram
system.membus.snoop_fanout::underflows              0      0.00%      0.00% # Request fanout histogram
system.membus.snoop_fanout::0                  159779     99.72%     99.72% # Request fanout histogram
system.membus.snoop_fanout::1                     445      0.28%    100.00% # Request fanout histogram
system.membus.snoop_fanout::2                       0      0.00%    100.00% # Request fanout histogram
system.membus.snoop_fanout::3                       0      0.00%    100.00% # Request fanout histogram
system.membus.snoop_fanout::overflows               0      0.00%    100.00% # Request fanout histogram
system.membus.snoop_fanout::min_value               0                       # Request fanout histogram
system.membus.snoop_fanout::max_value               1                       # Request fanout histogram
system.membus.snoop_fanout::total              160224                       # Request fanout histogram
system.membus.reqLayer0.occupancy              356000                       # Layer occupancy (ticks)
system.membus.reqLayer0.utilization               0.0                       # Layer utilization (%)
system.membus.reqLayer1.occupancy           836961786                       # Layer occupancy (ticks)
system.membus.reqLayer1.utilization               6.9                       # Layer utilization (%)
system.membus.reqLayer2.occupancy                3000                       # Layer occupancy (ticks)
system.membus.reqLayer2.utilization               0.0                       # Layer utilization (%)
system.membus.respLayer1.occupancy              17997                       # Layer occupancy (ticks)
system.membus.respLayer1.utilization              0.0                       # Layer utilization (%)
system.membus.respLayer3.occupancy          378134750                       # Layer occupancy (ticks)
system.membus.respLayer3.utilization              3.1                       # Layer utilization (%)
system.membus.badaddr_responder.pwrStateResidencyTicks::UNDEFINED 2542212607500                       # Cumulative time (in ticks) in various power states
system.membus.respLayer2.occupancy          474725750                       # Layer occupancy (ticks)
system.membus.respLayer2.utilization              3.9                       # Layer utilization (%)
system.clk_domain.clock                          1000                       # Clock period in ticks
system.tsunami.fake_uart1.pwrStateResidencyTicks::UNDEFINED 2542212607500                       # Cumulative time (in ticks) in various power states
system.tsunami.fake_uart2.pwrStateResidencyTicks::UNDEFINED 2542212607500                       # Cumulative time (in ticks) in various power states
system.tsunami.fake_uart3.pwrStateResidencyTicks::UNDEFINED 2542212607500                       # Cumulative time (in ticks) in various power states
system.tsunami.fake_uart4.pwrStateResidencyTicks::UNDEFINED 2542212607500                       # Cumulative time (in ticks) in various power states
system.tsunami.fake_ppc.pwrStateResidencyTicks::UNDEFINED 2542212607500                       # Cumulative time (in ticks) in various power states
system.tsunami.cchip.pwrStateResidencyTicks::UNDEFINED 2542212607500                       # Cumulative time (in ticks) in various power states
system.tsunami.io.pwrStateResidencyTicks::UNDEFINED 2542212607500                       # Cumulative time (in ticks) in various power states
system.tsunami.pchip.pwrStateResidencyTicks::UNDEFINED 2542212607500                       # Cumulative time (in ticks) in various power states
system.tsunami.fake_ata1.pwrStateResidencyTicks::UNDEFINED 2542212607500                       # Cumulative time (in ticks) in various power states
system.tsunami.fake_ata0.pwrStateResidencyTicks::UNDEFINED 2542212607500                       # Cumulative time (in ticks) in various power states
system.tsunami.backdoor.pwrStateResidencyTicks::UNDEFINED 2542212607500                       # Cumulative time (in ticks) in various power states
system.tsunami.fake_pnp_read3.pwrStateResidencyTicks::UNDEFINED 2542212607500                       # Cumulative time (in ticks) in various power states
system.tsunami.fake_pnp_read2.pwrStateResidencyTicks::UNDEFINED 2542212607500                       # Cumulative time (in ticks) in various power states
system.tsunami.fake_pnp_read1.pwrStateResidencyTicks::UNDEFINED 2542212607500                       # Cumulative time (in ticks) in various power states
system.tsunami.fake_pnp_read0.pwrStateResidencyTicks::UNDEFINED 2542212607500                       # Cumulative time (in ticks) in various power states
system.tsunami.fake_pnp_read7.pwrStateResidencyTicks::UNDEFINED 2542212607500                       # Cumulative time (in ticks) in various power states
system.tsunami.fake_pnp_read6.pwrStateResidencyTicks::UNDEFINED 2542212607500                       # Cumulative time (in ticks) in various power states
system.tsunami.fake_pnp_read5.pwrStateResidencyTicks::UNDEFINED 2542212607500                       # Cumulative time (in ticks) in various power states
system.tsunami.fake_pnp_read4.pwrStateResidencyTicks::UNDEFINED 2542212607500                       # Cumulative time (in ticks) in various power states
system.tsunami.fake_pnp_write.pwrStateResidencyTicks::UNDEFINED 2542212607500                       # Cumulative time (in ticks) in various power states
system.tsunami.fb.pwrStateResidencyTicks::UNDEFINED 2542212607500                       # Cumulative time (in ticks) in various power states
system.tsunami.fake_pnp_addr.pwrStateResidencyTicks::UNDEFINED 2542212607500                       # Cumulative time (in ticks) in various power states
system.tsunami.fake_OROM.pwrStateResidencyTicks::UNDEFINED 2542212607500                       # Cumulative time (in ticks) in various power states
system.tsunami.uart.pwrStateResidencyTicks::UNDEFINED 2542212607500                       # Cumulative time (in ticks) in various power states
system.tsunami.fake_sm_chip.pwrStateResidencyTicks::UNDEFINED 2542212607500                       # Cumulative time (in ticks) in various power states
system.tsunami.ethernet.pwrStateResidencyTicks::UNDEFINED 2542212607500                       # Cumulative time (in ticks) in various power states
system.tsunami.ide.pwrStateResidencyTicks::UNDEFINED 2542212607500                       # Cumulative time (in ticks) in various power states
system.cpu_voltage_domain.voltage                   1                       # Voltage in Volts
system.mem_ctrls.pwrStateResidencyTicks::UNDEFINED 2542212607500                       # Cumulative time (in ticks) in various power states
system.mem_ctrls.bytes_read::.cpu.inst        5725760                       # Number of bytes read from this memory
system.mem_ctrls.bytes_read::.cpu.data        4497728                       # Number of bytes read from this memory
system.mem_ctrls.bytes_read::total           10223488                       # Number of bytes read from this memory
system.mem_ctrls.bytes_inst_read::.cpu.inst      5725760                       # Number of instructions bytes read from this memory
system.mem_ctrls.bytes_inst_read::total       5725760                       # Number of instructions bytes read from this memory
system.mem_ctrls.bytes_written::.writebacks      2232896                       # Number of bytes written to this memory
system.mem_ctrls.bytes_written::total         2232896                       # Number of bytes written to this memory
system.mem_ctrls.num_reads::.cpu.inst           89465                       # Number of read requests responded to by this memory
system.mem_ctrls.num_reads::.cpu.data           70277                       # Number of read requests responded to by this memory
system.mem_ctrls.num_reads::total              159742                       # Number of read requests responded to by this memory
system.mem_ctrls.num_writes::.writebacks        34889                       # Number of write requests responded to by this memory
system.mem_ctrls.num_writes::total              34889                       # Number of write requests responded to by this memory
system.mem_ctrls.bw_read::.cpu.inst         469218343                       # Total read bandwidth from this memory (bytes/s)
system.mem_ctrls.bw_read::.cpu.data         368582770                       # Total read bandwidth from this memory (bytes/s)
system.mem_ctrls.bw_read::total             837801113                       # Total read bandwidth from this memory (bytes/s)
system.mem_ctrls.bw_inst_read::.cpu.inst    469218343                       # Instruction read bandwidth from this memory (bytes/s)
system.mem_ctrls.bw_inst_read::total        469218343                       # Instruction read bandwidth from this memory (bytes/s)
system.mem_ctrls.bw_write::.writebacks      182982829                       # Write bandwidth from this memory (bytes/s)
system.mem_ctrls.bw_write::total            182982829                       # Write bandwidth from this memory (bytes/s)
system.mem_ctrls.bw_total::.writebacks      182982829                       # Total bandwidth to/from this memory (bytes/s)
system.mem_ctrls.bw_total::.cpu.inst        469218343                       # Total bandwidth to/from this memory (bytes/s)
system.mem_ctrls.bw_total::.cpu.data        368582770                       # Total bandwidth to/from this memory (bytes/s)
system.mem_ctrls.bw_total::total           1020783941                       # Total bandwidth to/from this memory (bytes/s)
system.mem_ctrls.avgPriority_.writebacks::samples    121577.00                       # Average QoS priority value for accepted requests
system.mem_ctrls.avgPriority_.cpu.inst::samples     79536.00                       # Average QoS priority value for accepted requests
system.mem_ctrls.avgPriority_.cpu.data::samples     69765.00                       # Average QoS priority value for accepted requests
system.mem_ctrls.priorityMinLatency      0.000000018750                       # per QoS priority minimum request to response latency (s)
system.mem_ctrls.priorityMaxLatency      0.000175267750                       # per QoS priority maximum request to response latency (s)
system.mem_ctrls.numReadWriteTurnArounds         7478                       # Number of turnarounds from READ to WRITE
system.mem_ctrls.numWriteReadTurnArounds         7478                       # Number of turnarounds from WRITE to READ
system.mem_ctrls.numStayReadState              414538                       # Number of times bus staying in READ state
system.mem_ctrls.numStayWriteState             114209                       # Number of times bus staying in WRITE state
system.mem_ctrls.readReqs                      159742                       # Number of read requests accepted
system.mem_ctrls.writeReqs                     123599                       # Number of write requests accepted
system.mem_ctrls.readBursts                    159742                       # Number of DRAM read bursts, including those serviced by the write queue
system.mem_ctrls.writeBursts                   123599                       # Number of DRAM write bursts, including those merged in the write queue
system.mem_ctrls.servicedByWrQ                  10441                       # Number of DRAM read bursts serviced by the write queue
system.mem_ctrls.mergedWrBursts                  2022                       # Number of DRAM write bursts merged with an existing one
system.mem_ctrls.neitherReadNorWriteReqs            0                       # Number of requests that are neither read nor write
system.mem_ctrls.perBankRdBursts::0              8968                       # Per bank write bursts
system.mem_ctrls.perBankRdBursts::1              6768                       # Per bank write bursts
system.mem_ctrls.perBankRdBursts::2             10302                       # Per bank write bursts
system.mem_ctrls.perBankRdBursts::3              7246                       # Per bank write bursts
system.mem_ctrls.perBankRdBursts::4              8762                       # Per bank write bursts
system.mem_ctrls.perBankRdBursts::5             10046                       # Per bank write bursts
system.mem_ctrls.perBankRdBursts::6              8811                       # Per bank write bursts
system.mem_ctrls.perBankRdBursts::7              8810                       # Per bank write bursts
system.mem_ctrls.perBankRdBursts::8             11981                       # Per bank write bursts
system.mem_ctrls.perBankRdBursts::9              9405                       # Per bank write bursts
system.mem_ctrls.perBankRdBursts::10            10814                       # Per bank write bursts
system.mem_ctrls.perBankRdBursts::11            12144                       # Per bank write bursts
system.mem_ctrls.perBankRdBursts::12             8927                       # Per bank write bursts
system.mem_ctrls.perBankRdBursts::13            13843                       # Per bank write bursts
system.mem_ctrls.perBankRdBursts::14             5587                       # Per bank write bursts
system.mem_ctrls.perBankRdBursts::15             6887                       # Per bank write bursts
system.mem_ctrls.perBankWrBursts::0              7336                       # Per bank write bursts
system.mem_ctrls.perBankWrBursts::1              4559                       # Per bank write bursts
system.mem_ctrls.perBankWrBursts::2              9028                       # Per bank write bursts
system.mem_ctrls.perBankWrBursts::3              8035                       # Per bank write bursts
system.mem_ctrls.perBankWrBursts::4              7917                       # Per bank write bursts
system.mem_ctrls.perBankWrBursts::5              9785                       # Per bank write bursts
system.mem_ctrls.perBankWrBursts::6              7655                       # Per bank write bursts
system.mem_ctrls.perBankWrBursts::7              7001                       # Per bank write bursts
system.mem_ctrls.perBankWrBursts::8             10860                       # Per bank write bursts
system.mem_ctrls.perBankWrBursts::9              8567                       # Per bank write bursts
system.mem_ctrls.perBankWrBursts::10             8127                       # Per bank write bursts
system.mem_ctrls.perBankWrBursts::11             8125                       # Per bank write bursts
system.mem_ctrls.perBankWrBursts::12             5488                       # Per bank write bursts
system.mem_ctrls.perBankWrBursts::13            10138                       # Per bank write bursts
system.mem_ctrls.perBankWrBursts::14             3190                       # Per bank write bursts
system.mem_ctrls.perBankWrBursts::15             5745                       # Per bank write bursts
system.mem_ctrls.avgRdQLen                       1.09                       # Average read queue length when enqueuing
system.mem_ctrls.avgWrQLen                      25.68                       # Average write queue length when enqueuing
system.mem_ctrls.totQLat                   2047425500                       # Total ticks spent queuing
system.mem_ctrls.totBusLat                  746505000                       # Total ticks spent in databus transfers
system.mem_ctrls.totMemAccLat              4846819250                       # Total ticks spent from burst creation until serviced by the DRAM
system.mem_ctrls.avgQLat                     13713.41                       # Average queueing delay per DRAM burst
system.mem_ctrls.avgBusLat                    5000.00                       # Average bus latency per DRAM burst
system.mem_ctrls.avgMemAccLat                32463.41                       # Average memory access latency per DRAM burst
system.mem_ctrls.numRdRetry                         0                       # Number of times read queue was full causing retry
system.mem_ctrls.numWrRetry                         1                       # Number of times write queue was full causing retry
system.mem_ctrls.readRowHits                   105534                       # Number of row buffer hits during reads
system.mem_ctrls.writeRowHits                   82134                       # Number of row buffer hits during writes
system.mem_ctrls.readRowHitRate                 70.69                       # Row buffer hit rate for reads
system.mem_ctrls.writeRowHitRate                67.56                       # Row buffer hit rate for writes
system.mem_ctrls.readPktSize::0                     0                       # Read request sizes (log2)
system.mem_ctrls.readPktSize::1                     0                       # Read request sizes (log2)
system.mem_ctrls.readPktSize::2                     0                       # Read request sizes (log2)
system.mem_ctrls.readPktSize::3                     0                       # Read request sizes (log2)
system.mem_ctrls.readPktSize::4                     0                       # Read request sizes (log2)
system.mem_ctrls.readPktSize::5                     0                       # Read request sizes (log2)
system.mem_ctrls.readPktSize::6                159742                       # Read request sizes (log2)
system.mem_ctrls.writePktSize::0                    0                       # Write request sizes (log2)
system.mem_ctrls.writePktSize::1                    0                       # Write request sizes (log2)
system.mem_ctrls.writePktSize::2                    0                       # Write request sizes (log2)
system.mem_ctrls.writePktSize::3                    0                       # Write request sizes (log2)
system.mem_ctrls.writePktSize::4                    0                       # Write request sizes (log2)
system.mem_ctrls.writePktSize::5                    0                       # Write request sizes (log2)
system.mem_ctrls.writePktSize::6               123599                       # Write request sizes (log2)
system.mem_ctrls.rdQLenPdf::0                  136771                       # What read queue length does an incoming req see
system.mem_ctrls.rdQLenPdf::1                   12227                       # What read queue length does an incoming req see
system.mem_ctrls.rdQLenPdf::2                     303                       # What read queue length does an incoming req see
system.mem_ctrls.rdQLenPdf::3                       0                       # What read queue length does an incoming req see
system.mem_ctrls.rdQLenPdf::4                       0                       # What read queue length does an incoming req see
system.mem_ctrls.rdQLenPdf::5                       0                       # What read queue length does an incoming req see
system.mem_ctrls.rdQLenPdf::6                       0                       # What read queue length does an incoming req see
system.mem_ctrls.rdQLenPdf::7                       0                       # What read queue length does an incoming req see
system.mem_ctrls.rdQLenPdf::8                       0                       # What read queue length does an incoming req see
system.mem_ctrls.rdQLenPdf::9                       0                       # What read queue length does an incoming req see
system.mem_ctrls.rdQLenPdf::10                      0                       # What read queue length does an incoming req see
system.mem_ctrls.rdQLenPdf::11                      0                       # What read queue length does an incoming req see
system.mem_ctrls.rdQLenPdf::12                      0                       # What read queue length does an incoming req see
system.mem_ctrls.rdQLenPdf::13                      0                       # What read queue length does an incoming req see
system.mem_ctrls.rdQLenPdf::14                      0                       # What read queue length does an incoming req see
system.mem_ctrls.rdQLenPdf::15                      0                       # What read queue length does an incoming req see
system.mem_ctrls.rdQLenPdf::16                      0                       # What read queue length does an incoming req see
system.mem_ctrls.rdQLenPdf::17                      0                       # What read queue length does an incoming req see
system.mem_ctrls.rdQLenPdf::18                      0                       # What read queue length does an incoming req see
system.mem_ctrls.rdQLenPdf::19                      0                       # What read queue length does an incoming req see
system.mem_ctrls.rdQLenPdf::20                      0                       # What read queue length does an incoming req see
system.mem_ctrls.rdQLenPdf::21                      0                       # What read queue length does an incoming req see
system.mem_ctrls.rdQLenPdf::22                      0                       # What read queue length does an incoming req see
system.mem_ctrls.rdQLenPdf::23                      0                       # What read queue length does an incoming req see
system.mem_ctrls.rdQLenPdf::24                      0                       # What read queue length does an incoming req see
system.mem_ctrls.rdQLenPdf::25                      0                       # What read queue length does an incoming req see
system.mem_ctrls.rdQLenPdf::26                      0                       # What read queue length does an incoming req see
system.mem_ctrls.rdQLenPdf::27                      0                       # What read queue length does an incoming req see
system.mem_ctrls.rdQLenPdf::28                      0                       # What read queue length does an incoming req see
system.mem_ctrls.rdQLenPdf::29                      0                       # What read queue length does an incoming req see
system.mem_ctrls.rdQLenPdf::30                      0                       # What read queue length does an incoming req see
system.mem_ctrls.rdQLenPdf::31                      0                       # What read queue length does an incoming req see
system.mem_ctrls.wrQLenPdf::0                       1                       # What write queue length does an incoming req see
system.mem_ctrls.wrQLenPdf::1                       1                       # What write queue length does an incoming req see
system.mem_ctrls.wrQLenPdf::2                       1                       # What write queue length does an incoming req see
system.mem_ctrls.wrQLenPdf::3                       1                       # What write queue length does an incoming req see
system.mem_ctrls.wrQLenPdf::4                       1                       # What write queue length does an incoming req see
system.mem_ctrls.wrQLenPdf::5                       1                       # What write queue length does an incoming req see
system.mem_ctrls.wrQLenPdf::6                       1                       # What write queue length does an incoming req see
system.mem_ctrls.wrQLenPdf::7                       1                       # What write queue length does an incoming req see
system.mem_ctrls.wrQLenPdf::8                       1                       # What write queue length does an incoming req see
system.mem_ctrls.wrQLenPdf::9                       1                       # What write queue length does an incoming req see
system.mem_ctrls.wrQLenPdf::10                      1                       # What write queue length does an incoming req see
system.mem_ctrls.wrQLenPdf::11                      1                       # What write queue length does an incoming req see
system.mem_ctrls.wrQLenPdf::12                      1                       # What write queue length does an incoming req see
system.mem_ctrls.wrQLenPdf::13                      1                       # What write queue length does an incoming req see
system.mem_ctrls.wrQLenPdf::14                      1                       # What write queue length does an incoming req see
system.mem_ctrls.wrQLenPdf::15                    707                       # What write queue length does an incoming req see
system.mem_ctrls.wrQLenPdf::16                    815                       # What write queue length does an incoming req see
system.mem_ctrls.wrQLenPdf::17                   6907                       # What write queue length does an incoming req see
system.mem_ctrls.wrQLenPdf::18                   7501                       # What write queue length does an incoming req see
system.mem_ctrls.wrQLenPdf::19                   7577                       # What write queue length does an incoming req see
system.mem_ctrls.wrQLenPdf::20                   7560                       # What write queue length does an incoming req see
system.mem_ctrls.wrQLenPdf::21                   7573                       # What write queue length does an incoming req see
system.mem_ctrls.wrQLenPdf::22                   7628                       # What write queue length does an incoming req see
system.mem_ctrls.wrQLenPdf::23                   7570                       # What write queue length does an incoming req see
system.mem_ctrls.wrQLenPdf::24                   7547                       # What write queue length does an incoming req see
system.mem_ctrls.wrQLenPdf::25                   7554                       # What write queue length does an incoming req see
system.mem_ctrls.wrQLenPdf::26                   7557                       # What write queue length does an incoming req see
system.mem_ctrls.wrQLenPdf::27                   7537                       # What write queue length does an incoming req see
system.mem_ctrls.wrQLenPdf::28                   7520                       # What write queue length does an incoming req see
system.mem_ctrls.wrQLenPdf::29                   7511                       # What write queue length does an incoming req see
system.mem_ctrls.wrQLenPdf::30                   7479                       # What write queue length does an incoming req see
system.mem_ctrls.wrQLenPdf::31                   7476                       # What write queue length does an incoming req see
system.mem_ctrls.wrQLenPdf::32                   7476                       # What write queue length does an incoming req see
system.mem_ctrls.wrQLenPdf::33                     18                       # What write queue length does an incoming req see
system.mem_ctrls.wrQLenPdf::34                      7                       # What write queue length does an incoming req see
system.mem_ctrls.wrQLenPdf::35                      5                       # What write queue length does an incoming req see
system.mem_ctrls.wrQLenPdf::36                      1                       # What write queue length does an incoming req see
system.mem_ctrls.wrQLenPdf::37                      2                       # What write queue length does an incoming req see
system.mem_ctrls.wrQLenPdf::38                      1                       # What write queue length does an incoming req see
system.mem_ctrls.wrQLenPdf::39                      1                       # What write queue length does an incoming req see
system.mem_ctrls.wrQLenPdf::40                      1                       # What write queue length does an incoming req see
system.mem_ctrls.wrQLenPdf::41                      1                       # What write queue length does an incoming req see
system.mem_ctrls.wrQLenPdf::42                      1                       # What write queue length does an incoming req see
system.mem_ctrls.wrQLenPdf::43                      1                       # What write queue length does an incoming req see
system.mem_ctrls.wrQLenPdf::44                      1                       # What write queue length does an incoming req see
system.mem_ctrls.wrQLenPdf::45                      1                       # What write queue length does an incoming req see
system.mem_ctrls.wrQLenPdf::46                      1                       # What write queue length does an incoming req see
system.mem_ctrls.wrQLenPdf::47                      1                       # What write queue length does an incoming req see
system.mem_ctrls.wrQLenPdf::48                      1                       # What write queue length does an incoming req see
system.mem_ctrls.wrQLenPdf::49                      1                       # What write queue length does an incoming req see
system.mem_ctrls.wrQLenPdf::50                      1                       # What write queue length does an incoming req see
system.mem_ctrls.wrQLenPdf::51                      1                       # What write queue length does an incoming req see
system.mem_ctrls.wrQLenPdf::52                      1                       # What write queue length does an incoming req see
system.mem_ctrls.wrQLenPdf::53                      1                       # What write queue length does an incoming req see
system.mem_ctrls.wrQLenPdf::54                      2                       # What write queue length does an incoming req see
system.mem_ctrls.wrQLenPdf::55                      1                       # What write queue length does an incoming req see
system.mem_ctrls.wrQLenPdf::56                      1                       # What write queue length does an incoming req see
system.mem_ctrls.wrQLenPdf::57                      1                       # What write queue length does an incoming req see
system.mem_ctrls.wrQLenPdf::58                      1                       # What write queue length does an incoming req see
system.mem_ctrls.wrQLenPdf::59                      1                       # What write queue length does an incoming req see
system.mem_ctrls.wrQLenPdf::60                      1                       # What write queue length does an incoming req see
system.mem_ctrls.wrQLenPdf::61                      5                       # What write queue length does an incoming req see
system.mem_ctrls.wrQLenPdf::62                      2                       # What write queue length does an incoming req see
system.mem_ctrls.wrQLenPdf::63                      3                       # What write queue length does an incoming req see
system.mem_ctrls.bytesPerActivate::samples        83180                       # Bytes accessed per row activation
system.mem_ctrls.bytesPerActivate::mean    208.388555                       # Bytes accessed per row activation
system.mem_ctrls.bytesPerActivate::gmean   140.088243                       # Bytes accessed per row activation
system.mem_ctrls.bytesPerActivate::stdev   225.009074                       # Bytes accessed per row activation
system.mem_ctrls.bytesPerActivate::0-127        35292     42.43%     42.43% # Bytes accessed per row activation
system.mem_ctrls.bytesPerActivate::128-255        24718     29.72%     72.14% # Bytes accessed per row activation
system.mem_ctrls.bytesPerActivate::256-383        10146     12.20%     84.34% # Bytes accessed per row activation
system.mem_ctrls.bytesPerActivate::384-511         4691      5.64%     89.98% # Bytes accessed per row activation
system.mem_ctrls.bytesPerActivate::512-639         2485      2.99%     92.97% # Bytes accessed per row activation
system.mem_ctrls.bytesPerActivate::640-767         1451      1.74%     94.71% # Bytes accessed per row activation
system.mem_ctrls.bytesPerActivate::768-895          938      1.13%     95.84% # Bytes accessed per row activation
system.mem_ctrls.bytesPerActivate::896-1023          613      0.74%     96.58% # Bytes accessed per row activation
system.mem_ctrls.bytesPerActivate::1024-1151         2846      3.42%    100.00% # Bytes accessed per row activation
system.mem_ctrls.bytesPerActivate::total        83180                       # Bytes accessed per row activation
system.mem_ctrls.rdPerTurnAround::samples         7478                       # Reads before turning the bus around for writes
system.mem_ctrls.rdPerTurnAround::mean      19.964696                       # Reads before turning the bus around for writes
system.mem_ctrls.rdPerTurnAround::gmean     18.375983                       # Reads before turning the bus around for writes
system.mem_ctrls.rdPerTurnAround::stdev     12.531179                       # Reads before turning the bus around for writes
system.mem_ctrls.rdPerTurnAround::0-15           1306     17.46%     17.46% # Reads before turning the bus around for writes
system.mem_ctrls.rdPerTurnAround::16-31          5693     76.13%     93.59% # Reads before turning the bus around for writes
system.mem_ctrls.rdPerTurnAround::32-47           289      3.86%     97.46% # Reads before turning the bus around for writes
system.mem_ctrls.rdPerTurnAround::48-63            90      1.20%     98.66% # Reads before turning the bus around for writes
system.mem_ctrls.rdPerTurnAround::64-79            39      0.52%     99.18% # Reads before turning the bus around for writes
system.mem_ctrls.rdPerTurnAround::80-95            16      0.21%     99.40% # Reads before turning the bus around for writes
system.mem_ctrls.rdPerTurnAround::96-111           19      0.25%     99.65% # Reads before turning the bus around for writes
system.mem_ctrls.rdPerTurnAround::112-127            6      0.08%     99.73% # Reads before turning the bus around for writes
system.mem_ctrls.rdPerTurnAround::128-143            8      0.11%     99.84% # Reads before turning the bus around for writes
system.mem_ctrls.rdPerTurnAround::144-159            8      0.11%     99.95% # Reads before turning the bus around for writes
system.mem_ctrls.rdPerTurnAround::160-175            2      0.03%     99.97% # Reads before turning the bus around for writes
system.mem_ctrls.rdPerTurnAround::176-191            1      0.01%     99.99% # Reads before turning the bus around for writes
system.mem_ctrls.rdPerTurnAround::416-431            1      0.01%    100.00% # Reads before turning the bus around for writes
system.mem_ctrls.rdPerTurnAround::total          7478                       # Reads before turning the bus around for writes
system.mem_ctrls.wrPerTurnAround::samples         7478                       # Writes before turning the bus around for reads
system.mem_ctrls.wrPerTurnAround::mean      16.255148                       # Writes before turning the bus around for reads
system.mem_ctrls.wrPerTurnAround::gmean     16.238833                       # Writes before turning the bus around for reads
system.mem_ctrls.wrPerTurnAround::stdev      0.761623                       # Writes before turning the bus around for reads
system.mem_ctrls.wrPerTurnAround::16             6630     88.66%     88.66% # Writes before turning the bus around for reads
system.mem_ctrls.wrPerTurnAround::17              102      1.36%     90.02% # Writes before turning the bus around for reads
system.mem_ctrls.wrPerTurnAround::18              500      6.69%     96.71% # Writes before turning the bus around for reads
system.mem_ctrls.wrPerTurnAround::19              189      2.53%     99.24% # Writes before turning the bus around for reads
system.mem_ctrls.wrPerTurnAround::20               50      0.67%     99.91% # Writes before turning the bus around for reads
system.mem_ctrls.wrPerTurnAround::21                4      0.05%     99.96% # Writes before turning the bus around for reads
system.mem_ctrls.wrPerTurnAround::22                2      0.03%     99.99% # Writes before turning the bus around for reads
system.mem_ctrls.wrPerTurnAround::23                1      0.01%    100.00% # Writes before turning the bus around for reads
system.mem_ctrls.wrPerTurnAround::total          7478                       # Writes before turning the bus around for reads
system.mem_ctrls.bytesReadDRAM                9555264                       # Total number of bytes read from DRAM
system.mem_ctrls.bytesReadWrQ                  668224                       # Total number of bytes read from write queue
system.mem_ctrls.bytesWritten                 7779584                       # Total number of bytes written to DRAM
system.mem_ctrls.bytesReadSys                10223488                       # Total read bytes from the system interface side
system.mem_ctrls.bytesWrittenSys              7910336                       # Total written bytes from the system interface side
system.mem_ctrls.avgRdBW                       783.04                       # Average DRAM read bandwidth in MiByte/s
system.mem_ctrls.avgWrBW                       637.53                       # Average achieved write bandwidth in MiByte/s
system.mem_ctrls.avgRdBWSys                    837.80                       # Average system read bandwidth in MiByte/s
system.mem_ctrls.avgWrBWSys                    648.24                       # Average system write bandwidth in MiByte/s
system.mem_ctrls.peakBW                      12800.00                       # Theoretical peak bandwidth in MiByte/s
system.mem_ctrls.busUtil                        11.10                       # Data bus utilization in percentage
system.mem_ctrls.busUtilRead                     6.12                       # Data bus utilization in percentage for reads
system.mem_ctrls.busUtilWrite                    4.98                       # Data bus utilization in percentage for writes
system.mem_ctrls.totGap                   12202757500                       # Total gap between requests
system.mem_ctrls.avgGap                      43067.39                       # Average gap between requests
system.mem_ctrls.masterReadBytes::.cpu.inst      5090304                       # Per-master bytes read from memory
system.mem_ctrls.masterReadBytes::.cpu.data      4464960                       # Per-master bytes read from memory
system.mem_ctrls.masterWriteBytes::.writebacks      7779584                       # Per-master bytes write to memory
system.mem_ctrls.masterReadRate::.cpu.inst 417143577.120344638824                       # Per-master bytes read from memory rate (Bytes/sec)
[...]
system.cpu.icache.ReadReq_mshr_miss_latency::total  13734867500                       # number of ReadReq MSHR miss cycles
system.cpu.icache.ReadReq_mshr_miss_rate::.cpu.inst     0.003151                       # mshr miss rate for ReadReq accesses
system.cpu.icache.ReadReq_mshr_miss_rate::total     0.003151                       # mshr miss rate for ReadReq accesses
system.cpu.icache.ReadReq_avg_mshr_miss_latency::.cpu.inst 23884.524557                       # average ReadReq mshr miss latency
system.cpu.icache.ReadReq_avg_mshr_miss_latency::total 23884.524557                       # average ReadReq mshr miss latency
system.cpu.icache.tags.pwrStateResidencyTicks::UNDEFINED 409750628500                       # Cumulative time (in ticks) in various power states
system.cpu.icache.tags.tagsinuse                  512                       # Cycle average of tags in use
system.cpu.icache.tags.total_refs           182547258                       # Total number of references to valid blocks.
system.cpu.icache.tags.sampled_refs            575566                       # Sample count of references to valid blocks.
system.cpu.icache.tags.avg_refs            317.161295                       # Average number of references to valid blocks.
system.cpu.icache.tags.warmup_cycle                 0                       # Cycle when the warmup percentage was hit.
system.cpu.icache.tags.occ_blocks::.cpu.inst          512                       # Average occupied blocks per requestor
system.cpu.icache.tags.occ_percent::.cpu.inst            1                       # Average percentage of cache occupancy
system.cpu.icache.tags.occ_percent::total            1                       # Average percentage of cache occupancy
system.cpu.icache.tags.occ_task_id_blocks::1024          512                       # Occupied blocks per task id
system.cpu.icache.tags.age_task_id_blocks_1024::0            2                       # Occupied blocks per task id
system.cpu.icache.tags.age_task_id_blocks_1024::1           63                       # Occupied blocks per task id
system.cpu.icache.tags.age_task_id_blocks_1024::3            7                       # Occupied blocks per task id
system.cpu.icache.tags.age_task_id_blocks_1024::4          440                       # Occupied blocks per task id
system.cpu.icache.tags.occ_task_id_percent::1024            1                       # Percentage of cache occupancy per task id
system.cpu.icache.tags.tag_accesses         365608142                       # Number of tag accesses
system.cpu.icache.tags.data_accesses        365608142                       # Number of data accesses
system.cpu.dcache.pwrStateResidencyTicks::UNDEFINED 409750628500                       # Cumulative time (in ticks) in various power states
system.cpu.dcache.demand_hits::.cpu.data    122523256                       # number of demand (read+write) hits
system.cpu.dcache.demand_hits::total        122523256                       # number of demand (read+write) hits
system.cpu.dcache.overall_hits::.cpu.data    122523256                       # number of overall hits
system.cpu.dcache.overall_hits::total       122523256                       # number of overall hits
system.cpu.dcache.demand_misses::.cpu.data       129231                       # number of demand (read+write) misses
system.cpu.dcache.demand_misses::total         129231                       # number of demand (read+write) misses
system.cpu.dcache.overall_misses::.cpu.data       129231                       # number of overall misses
system.cpu.dcache.overall_misses::total        129231                       # number of overall misses
system.cpu.dcache.demand_miss_latency::.cpu.data   8448184000                       # number of demand (read+write) miss cycles
system.cpu.dcache.demand_miss_latency::total   8448184000                       # number of demand (read+write) miss cycles
system.cpu.dcache.overall_miss_latency::.cpu.data   8448184000                       # number of overall miss cycles
system.cpu.dcache.overall_miss_latency::total   8448184000                       # number of overall miss cycles
system.cpu.dcache.demand_accesses::.cpu.data    122652487                       # number of demand (read+write) accesses
system.cpu.dcache.demand_accesses::total    122652487                       # number of demand (read+write) accesses
system.cpu.dcache.overall_accesses::.cpu.data    122652487                       # number of overall (read+write) accesses
system.cpu.dcache.overall_accesses::total    122652487                       # number of overall (read+write) accesses
system.cpu.dcache.demand_miss_rate::.cpu.data     0.001054                       # miss rate for demand accesses
system.cpu.dcache.demand_miss_rate::total     0.001054                       # miss rate for demand accesses
system.cpu.dcache.overall_miss_rate::.cpu.data     0.001054                       # miss rate for overall accesses
system.cpu.dcache.overall_miss_rate::total     0.001054                       # miss rate for overall accesses
system.cpu.dcache.demand_avg_miss_latency::.cpu.data 65372.735644                       # average overall miss latency
system.cpu.dcache.demand_avg_miss_latency::total 65372.735644                       # average overall miss latency
system.cpu.dcache.overall_avg_miss_latency::.cpu.data 65372.735644                       # average overall miss latency
system.cpu.dcache.overall_avg_miss_latency::total 65372.735644                       # average overall miss latency
system.cpu.dcache.blocked_cycles::no_mshrs            0                       # number of cycles access was blocked
system.cpu.dcache.blocked_cycles::no_targets            0                       # number of cycles access was blocked
system.cpu.dcache.blocked::no_mshrs                 0                       # number of cycles access was blocked
system.cpu.dcache.blocked::no_targets               0                       # number of cycles access was blocked
system.cpu.dcache.avg_blocked_cycles::no_mshrs          nan                       # average number of cycles each access was blocked
system.cpu.dcache.avg_blocked_cycles::no_targets          nan                       # average number of cycles each access was blocked
system.cpu.dcache.writebacks::.writebacks        19303                       # number of writebacks
system.cpu.dcache.writebacks::total             19303                       # number of writebacks
system.cpu.dcache.demand_mshr_hits::.cpu.data         4575                       # number of demand (read+write) MSHR hits
system.cpu.dcache.demand_mshr_hits::total         4575                       # number of demand (read+write) MSHR hits
system.cpu.dcache.overall_mshr_hits::.cpu.data         4575                       # number of overall MSHR hits
system.cpu.dcache.overall_mshr_hits::total         4575                       # number of overall MSHR hits
system.cpu.dcache.demand_mshr_misses::.cpu.data       124656                       # number of demand (read+write) MSHR misses
system.cpu.dcache.demand_mshr_misses::total       124656                       # number of demand (read+write) MSHR misses
system.cpu.dcache.overall_mshr_misses::.cpu.data       124656                       # number of overall MSHR misses
system.cpu.dcache.overall_mshr_misses::total       124656                       # number of overall MSHR misses
system.cpu.dcache.overall_mshr_uncacheable_misses::.cpu.data          420                       # number of overall MSHR uncacheable misses
system.cpu.dcache.overall_mshr_uncacheable_misses::total          420                       # number of overall MSHR uncacheable misses
system.cpu.dcache.demand_mshr_miss_latency::.cpu.data   8182328000                       # number of demand (read+write) MSHR miss cycles
system.cpu.dcache.demand_mshr_miss_latency::total   8182328000                       # number of demand (read+write) MSHR miss cycles
system.cpu.dcache.overall_mshr_miss_latency::.cpu.data   8182328000                       # number of overall MSHR miss cycles
system.cpu.dcache.overall_mshr_miss_latency::total   8182328000                       # number of overall MSHR miss cycles
system.cpu.dcache.demand_mshr_miss_rate::.cpu.data     0.001016                       # mshr miss rate for demand accesses
system.cpu.dcache.demand_mshr_miss_rate::total     0.001016                       # mshr miss rate for demand accesses
system.cpu.dcache.overall_mshr_miss_rate::.cpu.data     0.001016                       # mshr miss rate for overall accesses
system.cpu.dcache.overall_mshr_miss_rate::total     0.001016                       # mshr miss rate for overall accesses
system.cpu.dcache.demand_avg_mshr_miss_latency::.cpu.data 65639.263252                       # average overall mshr miss latency
system.cpu.dcache.demand_avg_mshr_miss_latency::total 65639.263252                       # average overall mshr miss latency
system.cpu.dcache.overall_avg_mshr_miss_latency::.cpu.data 65639.263252                       # average overall mshr miss latency
system.cpu.dcache.overall_avg_mshr_miss_latency::total 65639.263252                       # average overall mshr miss latency
system.cpu.dcache.replacements                 124844                       # number of replacements
system.cpu.dcache.ReadReq_hits::.cpu.data     73700477                       # number of ReadReq hits
system.cpu.dcache.ReadReq_hits::total        73700477                       # number of ReadReq hits
system.cpu.dcache.ReadReq_misses::.cpu.data       108021                       # number of ReadReq misses
system.cpu.dcache.ReadReq_misses::total        108021                       # number of ReadReq misses
system.cpu.dcache.ReadReq_miss_latency::.cpu.data   7358575000                       # number of ReadReq miss cycles
system.cpu.dcache.ReadReq_miss_latency::total   7358575000                       # number of ReadReq miss cycles
system.cpu.dcache.ReadReq_accesses::.cpu.data     73808498                       # number of ReadReq accesses(hits+misses)
system.cpu.dcache.ReadReq_accesses::total     73808498                       # number of ReadReq accesses(hits+misses)
system.cpu.dcache.ReadReq_miss_rate::.cpu.data     0.001464                       # miss rate for ReadReq accesses
system.cpu.dcache.ReadReq_miss_rate::total     0.001464                       # miss rate for ReadReq accesses
system.cpu.dcache.ReadReq_avg_miss_latency::.cpu.data 68121.707816                       # average ReadReq miss latency
system.cpu.dcache.ReadReq_avg_miss_latency::total 68121.707816                       # average ReadReq miss latency
system.cpu.dcache.ReadReq_mshr_hits::.cpu.data           44                       # number of ReadReq MSHR hits
system.cpu.dcache.ReadReq_mshr_hits::total           44                       # number of ReadReq MSHR hits
system.cpu.dcache.ReadReq_mshr_misses::.cpu.data       107977                       # number of ReadReq MSHR misses
system.cpu.dcache.ReadReq_mshr_misses::total       107977                       # number of ReadReq MSHR misses
system.cpu.dcache.ReadReq_mshr_miss_latency::.cpu.data   7247203000                       # number of ReadReq MSHR miss cycles
system.cpu.dcache.ReadReq_mshr_miss_latency::total   7247203000                       # number of ReadReq MSHR miss cycles
system.cpu.dcache.ReadReq_mshr_miss_rate::.cpu.data     0.001463                       # mshr miss rate for ReadReq accesses
system.cpu.dcache.ReadReq_mshr_miss_rate::total     0.001463                       # mshr miss rate for ReadReq accesses
system.cpu.dcache.ReadReq_avg_mshr_miss_latency::.cpu.data 67118.025135                       # average ReadReq mshr miss latency
system.cpu.dcache.ReadReq_avg_mshr_miss_latency::total 67118.025135                       # average ReadReq mshr miss latency
system.cpu.dcache.WriteReq_hits::.cpu.data     48822779                       # number of WriteReq hits
system.cpu.dcache.WriteReq_hits::total       48822779                       # number of WriteReq hits
system.cpu.dcache.WriteReq_misses::.cpu.data        21210                       # number of WriteReq misses
system.cpu.dcache.WriteReq_misses::total        21210                       # number of WriteReq misses
system.cpu.dcache.WriteReq_miss_latency::.cpu.data   1089609000                       # number of WriteReq miss cycles
system.cpu.dcache.WriteReq_miss_latency::total   1089609000                       # number of WriteReq miss cycles
system.cpu.dcache.WriteReq_accesses::.cpu.data     48843989                       # number of WriteReq accesses(hits+misses)
system.cpu.dcache.WriteReq_accesses::total     48843989                       # number of WriteReq accesses(hits+misses)
system.cpu.dcache.WriteReq_miss_rate::.cpu.data     0.000434                       # miss rate for WriteReq accesses
system.cpu.dcache.WriteReq_miss_rate::total     0.000434                       # miss rate for WriteReq accesses
system.cpu.dcache.WriteReq_avg_miss_latency::.cpu.data 51372.418670                       # average WriteReq miss latency
system.cpu.dcache.WriteReq_avg_miss_latency::total 51372.418670                       # average WriteReq miss latency
system.cpu.dcache.WriteReq_mshr_hits::.cpu.data         4531                       # number of WriteReq MSHR hits
system.cpu.dcache.WriteReq_mshr_hits::total         4531                       # number of WriteReq MSHR hits
system.cpu.dcache.WriteReq_mshr_misses::.cpu.data        16679                       # number of WriteReq MSHR misses
system.cpu.dcache.WriteReq_mshr_misses::total        16679                       # number of WriteReq MSHR misses
system.cpu.dcache.WriteReq_mshr_uncacheable::.cpu.data          420                       # number of WriteReq MSHR uncacheable
system.cpu.dcache.WriteReq_mshr_uncacheable::total          420                       # number of WriteReq MSHR uncacheable
system.cpu.dcache.WriteReq_mshr_miss_latency::.cpu.data    935125000                       # number of WriteReq MSHR miss cycles
system.cpu.dcache.WriteReq_mshr_miss_latency::total    935125000                       # number of WriteReq MSHR miss cycles
system.cpu.dcache.WriteReq_mshr_miss_rate::.cpu.data     0.000341                       # mshr miss rate for WriteReq accesses
system.cpu.dcache.WriteReq_mshr_miss_rate::total     0.000341                       # mshr miss rate for WriteReq accesses
system.cpu.dcache.WriteReq_avg_mshr_miss_latency::.cpu.data 56066.011152                       # average WriteReq mshr miss latency
system.cpu.dcache.WriteReq_avg_mshr_miss_latency::total 56066.011152                       # average WriteReq mshr miss latency
system.cpu.dcache.LoadLockedReq_hits::.cpu.data         2484                       # number of LoadLockedReq hits
system.cpu.dcache.LoadLockedReq_hits::total         2484                       # number of LoadLockedReq hits
system.cpu.dcache.LoadLockedReq_misses::.cpu.data          188                       # number of LoadLockedReq misses
system.cpu.dcache.LoadLockedReq_misses::total          188                       # number of LoadLockedReq misses
system.cpu.dcache.LoadLockedReq_miss_latency::.cpu.data     14637500                       # number of LoadLockedReq miss cycles
system.cpu.dcache.LoadLockedReq_miss_latency::total     14637500                       # number of LoadLockedReq miss cycles
system.cpu.dcache.LoadLockedReq_accesses::.cpu.data         2672                       # number of LoadLockedReq accesses(hits+misses)
system.cpu.dcache.LoadLockedReq_accesses::total         2672                       # number of LoadLockedReq accesses(hits+misses)
system.cpu.dcache.LoadLockedReq_miss_rate::.cpu.data     0.070359                       # miss rate for LoadLockedReq accesses
system.cpu.dcache.LoadLockedReq_miss_rate::total     0.070359                       # miss rate for LoadLockedReq accesses
system.cpu.dcache.LoadLockedReq_avg_miss_latency::.cpu.data 77859.042553                       # average LoadLockedReq miss latency
system.cpu.dcache.LoadLockedReq_avg_miss_latency::total 77859.042553                       # average LoadLockedReq miss latency
system.cpu.dcache.LoadLockedReq_mshr_misses::.cpu.data          188                       # number of LoadLockedReq MSHR misses
system.cpu.dcache.LoadLockedReq_mshr_misses::total          188                       # number of LoadLockedReq MSHR misses
system.cpu.dcache.LoadLockedReq_mshr_miss_latency::.cpu.data     14449500                       # number of LoadLockedReq MSHR miss cycles
system.cpu.dcache.LoadLockedReq_mshr_miss_latency::total     14449500                       # number of LoadLockedReq MSHR miss cycles
system.cpu.dcache.LoadLockedReq_mshr_miss_rate::.cpu.data     0.070359                       # mshr miss rate for LoadLockedReq accesses
system.cpu.dcache.LoadLockedReq_mshr_miss_rate::total     0.070359                       # mshr miss rate for LoadLockedReq accesses
system.cpu.dcache.LoadLockedReq_avg_mshr_miss_latency::.cpu.data 76859.042553                       # average LoadLockedReq mshr miss latency
system.cpu.dcache.LoadLockedReq_avg_mshr_miss_latency::total 76859.042553                       # average LoadLockedReq mshr miss latency
system.cpu.dcache.StoreCondReq_hits::.cpu.data         2672                       # number of StoreCondReq hits
system.cpu.dcache.StoreCondReq_hits::total         2672                       # number of StoreCondReq hits
system.cpu.dcache.StoreCondReq_accesses::.cpu.data         2672                       # number of StoreCondReq accesses(hits+misses)
system.cpu.dcache.StoreCondReq_accesses::total         2672                       # number of StoreCondReq accesses(hits+misses)
system.cpu.dcache.tags.pwrStateResidencyTicks::UNDEFINED 409750628500                       # Cumulative time (in ticks) in various power states
system.cpu.dcache.tags.tagsinuse                 1024                       # Cycle average of tags in use
system.cpu.dcache.tags.total_refs           122694373                       # Total number of references to valid blocks.
system.cpu.dcache.tags.sampled_refs            125868                       # Sample count of references to valid blocks.
system.cpu.dcache.tags.avg_refs            974.786070                       # Average number of references to valid blocks.
system.cpu.dcache.tags.warmup_cycle                 0                       # Cycle when the warmup percentage was hit.
system.cpu.dcache.tags.occ_blocks::.cpu.data         1024                       # Average occupied blocks per requestor
system.cpu.dcache.tags.occ_percent::.cpu.data            1                       # Average percentage of cache occupancy
system.cpu.dcache.tags.occ_percent::total            1                       # Average percentage of cache occupancy
system.cpu.dcache.tags.occ_task_id_blocks::1024         1024                       # Occupied blocks per task id
system.cpu.dcache.tags.age_task_id_blocks_1024::0            7                       # Occupied blocks per task id
system.cpu.dcache.tags.age_task_id_blocks_1024::1           34                       # Occupied blocks per task id
system.cpu.dcache.tags.age_task_id_blocks_1024::2          123                       # Occupied blocks per task id
system.cpu.dcache.tags.age_task_id_blocks_1024::3          662                       # Occupied blocks per task id
system.cpu.dcache.tags.age_task_id_blocks_1024::4          198                       # Occupied blocks per task id
system.cpu.dcache.tags.occ_task_id_percent::1024            1                       # Percentage of cache occupancy per task id
system.cpu.dcache.tags.tag_accesses         245440506                       # Number of tag accesses
system.cpu.dcache.tags.data_accesses        245440506                       # Number of data accesses

---------- End Simulation Statistics   ----------
