
---------- Begin Simulation Statistics ----------
final_tick                               2542188291500                       # Number of ticks from beginning of simulation (restored from checkpoints and never reset)
host_inst_rate                                 226794                       # Simulator instruction rate (inst/s)
host_mem_usage                                 740740                       # Number of bytes of host memory used
host_op_rate                                   226793                       # Simulator op (including micro ops) rate (op/s)
host_seconds                                    18.52                       # Real time elapsed on the host
host_tick_rate                              657547927                       # Simulator tick rate (ticks/s)
sim_freq                                 1000000000000                       # Frequency of simulated ticks
sim_insts                                     4200426                       # Number of instructions simulated
sim_ops                                       4200426                       # Number of ops (including micro ops) simulated
sim_seconds                                  0.012178                       # Number of seconds simulated
sim_ticks                                 12178446500                       # Number of ticks simulated
system.cpu.branchPred.BTBCorrect                    0                       # Number of correct BTB predictions (this stat may not work properly.
system.cpu.branchPred.BTBHitPct             48.958646                       # BTB Hit Percentage
system.cpu.branchPred.BTBHits                  371978                       # Number of BTB hits
system.cpu.branchPred.BTBLookups               759780                       # Number of BTB lookups
system.cpu.branchPred.RASInCorrect               2683                       # Number of incorrect RAS predictions.
system.cpu.branchPred.condIncorrect            116291                       # Number of conditional branches incorrect
system.cpu.branchPred.condPredicted            951349                       # Number of conditional branches predicted
system.cpu.branchPred.indirectHits              30781                       # Number of indirect target hits.
system.cpu.branchPred.indirectLookups          223352                       # Number of indirect predictor lookups.
system.cpu.branchPred.indirectMisses           192571                       # Number of indirect misses.
system.cpu.branchPred.lookups                 1158550                       # Number of BP lookups
system.cpu.branchPred.usedRAS                   72195                       # Number of times the RAS was used to get a target.
system.cpu.branchPredindirectMispredicted        30281                       # Number of mispredicted indirect branches.
system.cpu.committedInsts                     4200426                       # Number of instructions committed
system.cpu.committedOps                       4200426                       # Number of ops (including micro ops) committed
system.cpu.cpi                               5.795424                       # CPI: cycles per instruction
system.cpu.discardedOps                        317596                       # Number of ops (including micro ops) which were discarded before commit
system.cpu.dtb.data_accesses                   620741                       # DTB accesses
system.cpu.dtb.data_acv                           130                       # DTB access violations
system.cpu.dtb.data_hits                      1481724                       # DTB hits
system.cpu.dtb.data_misses                       8516                       # DTB misses
system.cpu.dtb.fetch_accesses                       0                       # ITB accesses
system.cpu.dtb.fetch_acv                            0                       # ITB acv
system.cpu.dtb.fetch_hits                           0                       # ITB hits
system.cpu.dtb.fetch_misses                         0                       # ITB misses
system.cpu.dtb.read_accesses                   418400                       # DTB read accesses
system.cpu.dtb.read_acv                            43                       # DTB read access violations
system.cpu.dtb.read_hits                       876799                       # DTB read hits
system.cpu.dtb.read_misses                       7650                       # DTB read misses
system.cpu.dtb.write_accesses                  202341                       # DTB write accesses
system.cpu.dtb.write_acv                           87                       # DTB write access violations
system.cpu.dtb.write_hits                      604925                       # DTB write hits
system.cpu.dtb.write_misses                       866                       # DTB write misses
system.cpu.fetch2.amo_instructions                  0                       # Number of memory atomic instructions successfully decoded
system.cpu.fetch2.fp_instructions               18271                       # Number of floating point instructions successfully decoded
system.cpu.fetch2.int_instructions            3702159                       # Number of integer instructions successfully decoded
system.cpu.fetch2.load_instructions           1170455                       # Number of memory load instructions successfully decoded
system.cpu.fetch2.store_instructions           689019                       # Number of memory store instructions successfully decoded
system.cpu.fetch2.vec_instructions                  0                       # Number of SIMD instructions successfully decoded
system.cpu.idleCycles                        17087708                       # Total number of cycles that the object has spent stopped
system.cpu.ipc                               0.172550                       # IPC: instructions per cycle
system.cpu.itb.data_accesses                        0                       # DTB accesses
system.cpu.itb.data_acv                             0                       # DTB access violations
system.cpu.itb.data_hits                            0                       # DTB hits
system.cpu.itb.data_misses                          0                       # DTB misses
system.cpu.itb.fetch_accesses                  993553                       # ITB accesses
system.cpu.itb.fetch_acv                          525                       # ITB acv
system.cpu.itb.fetch_hits                      987682                       # ITB hits
system.cpu.itb.fetch_misses                      5871                       # ITB misses
system.cpu.itb.read_accesses                        0                       # DTB read accesses
system.cpu.itb.read_acv                             0                       # DTB read access violations
system.cpu.itb.read_hits                            0                       # DTB read hits
system.cpu.itb.read_misses                          0                       # DTB read misses
system.cpu.itb.write_accesses                       0                       # DTB write accesses
system.cpu.itb.write_acv                            0                       # DTB write access violations
system.cpu.itb.write_hits                           0                       # DTB write hits
system.cpu.itb.write_misses                         0                       # DTB write misses
system.cpu.kern.callpal::swpctx                   574      9.41%      9.41% # number of callpals executed
system.cpu.kern.callpal::tbi                       25      0.41%      9.82% # number of callpals executed
system.cpu.kern.callpal::swpipl                  4236     69.42%     79.24% # number of callpals executed
system.cpu.kern.callpal::rdps                      50      0.82%     80.06% # number of callpals executed
system.cpu.kern.callpal::wrusp                      4      0.07%     80.12% # number of callpals executed
system.cpu.kern.callpal::rdusp                      3      0.05%     80.17% # number of callpals executed
system.cpu.kern.callpal::rti                      897     14.70%     94.87% # number of callpals executed
system.cpu.kern.callpal::callsys                  235      3.85%     98.72% # number of callpals executed
system.cpu.kern.callpal::imb                       78      1.28%    100.00% # number of callpals executed
system.cpu.kern.callpal::total                   6102                       # number of callpals executed
system.cpu.kern.inst.arm                            0                       # number of arm instructions executed
system.cpu.kern.inst.hwrei                      14446                       # number of hwrei instructions executed
system.cpu.kern.inst.quiesce                        9                       # number of quiesce instructions executed
system.cpu.kern.ipl_count::0                     2438     47.33%     47.33% # number of times we switched to this ipl
system.cpu.kern.ipl_count::21                       5      0.10%     47.43% # number of times we switched to this ipl
system.cpu.kern.ipl_count::22                      13      0.25%     47.68% # number of times we switched to this ipl
system.cpu.kern.ipl_count::31                    2695     52.32%    100.00% # number of times we switched to this ipl
system.cpu.kern.ipl_count::total                 5151                       # number of times we switched to this ipl
system.cpu.kern.ipl_good::0                      2425     49.82%     49.82% # number of times we switched to this ipl from a different ipl
system.cpu.kern.ipl_good::21                        5      0.10%     49.92% # number of times we switched to this ipl from a different ipl
system.cpu.kern.ipl_good::22                       13      0.27%     50.18% # number of times we switched to this ipl from a different ipl
system.cpu.kern.ipl_good::31                     2425     49.82%    100.00% # number of times we switched to this ipl from a different ipl
system.cpu.kern.ipl_good::total                  4868                       # number of times we switched to this ipl from a different ipl
system.cpu.kern.ipl_ticks::0              11220771000     92.11%     92.11% # number of cycles we spent at this ipl
system.cpu.kern.ipl_ticks::21                 9208000      0.08%     92.18% # number of cycles we spent at this ipl
system.cpu.kern.ipl_ticks::22                19576000      0.16%     92.34% # number of cycles we spent at this ipl
system.cpu.kern.ipl_ticks::31               932929000      7.66%    100.00% # number of cycles we spent at this ipl
system.cpu.kern.ipl_ticks::total          12182484000                       # number of cycles we spent at this ipl
system.cpu.kern.ipl_used::0                  0.994668                       # fraction of swpipl calls that actually changed the ipl
system.cpu.kern.ipl_used::21                        1                       # fraction of swpipl calls that actually changed the ipl
system.cpu.kern.ipl_used::22                        1                       # fraction of swpipl calls that actually changed the ipl
system.cpu.kern.ipl_used::31                 0.899814                       # fraction of swpipl calls that actually changed the ipl
system.cpu.kern.ipl_used::total              0.945059                       # fraction of swpipl calls that actually changed the ipl
system.cpu.kern.mode_good::kernel                 870                      
system.cpu.kern.mode_good::user                   870                      
system.cpu.kern.mode_good::idle                     0                      
system.cpu.kern.mode_switch::kernel              1471                       # number of protection mode switches
system.cpu.kern.mode_switch::user                 870                       # number of protection mode switches
system.cpu.kern.mode_switch::idle                   0                       # number of protection mode switches
system.cpu.kern.mode_switch_good::kernel     0.591434                       # fraction of useful protection mode switches
system.cpu.kern.mode_switch_good::user              1                       # fraction of useful protection mode switches
system.cpu.kern.mode_switch_good::idle            nan                       # fraction of useful protection mode switches
system.cpu.kern.mode_switch_good::total      0.743272                       # fraction of useful protection mode switches
system.cpu.kern.mode_ticks::kernel         8201930000     67.33%     67.33% # number of ticks spent at the given mode
system.cpu.kern.mode_ticks::user           3980554000     32.67%    100.00% # number of ticks spent at the given mode
system.cpu.kern.mode_ticks::idle                    0      0.00%    100.00% # number of ticks spent at the given mode
system.cpu.kern.swap_context                      574                       # number of times the context was actually changed
system.cpu.numCycles                         24343249                       # number of cpu cycles simulated
system.cpu.numFetchSuspends                         9                       # Number of times Execute suspended instruction fetching
system.cpu.numWorkItemsCompleted                    0                       # number of work items this cpu completed
system.cpu.numWorkItemsStarted                      0                       # number of work items this cpu started
system.cpu.op_class_0::No_OpClass               85465      2.03%      2.03% # Class of committed instruction
system.cpu.op_class_0::IntAlu                 2543991     60.57%     62.60% # Class of committed instruction
system.cpu.op_class_0::IntMult                   3684      0.09%     62.69% # Class of committed instruction
system.cpu.op_class_0::IntDiv                       0      0.00%     62.69% # Class of committed instruction
system.cpu.op_class_0::FloatAdd                  8286      0.20%     62.88% # Class of committed instruction
system.cpu.op_class_0::FloatCmp                     0      0.00%     62.88% # Class of committed instruction
system.cpu.op_class_0::FloatCvt                     0      0.00%     62.88% # Class of committed instruction
system.cpu.op_class_0::FloatMult                    0      0.00%     62.88% # Class of committed instruction
system.cpu.op_class_0::FloatMultAcc                 0      0.00%     62.88% # Class of committed instruction
system.cpu.op_class_0::FloatDiv                  1593      0.04%     62.92% # Class of committed instruction
system.cpu.op_class_0::FloatMisc                    0      0.00%     62.92% # Class of committed instruction
system.cpu.op_class_0::FloatSqrt                    0      0.00%     62.92% # Class of committed instruction
system.cpu.op_class_0::SimdAdd                      0      0.00%     62.92% # Class of committed instruction
system.cpu.op_class_0::SimdAddAcc                   0      0.00%     62.92% # Class of committed instruction
system.cpu.op_class_0::SimdAlu                      0      0.00%     62.92% # Class of committed instruction
system.cpu.op_class_0::SimdCmp                      0      0.00%     62.92% # Class of committed instruction
system.cpu.op_class_0::SimdCvt                      0      0.00%     62.92% # Class of committed instruction
system.cpu.op_class_0::SimdMisc                     0      0.00%     62.92% # Class of committed instruction
system.cpu.op_class_0::SimdMult                     0      0.00%     62.92% # Class of committed instruction
system.cpu.op_class_0::SimdMultAcc                  0      0.00%     62.92% # Class of committed instruction
system.cpu.op_class_0::SimdShift                    0      0.00%     62.92% # Class of committed instruction
system.cpu.op_class_0::SimdShiftAcc                 0      0.00%     62.92% # Class of committed instruction
system.cpu.op_class_0::SimdDiv                      0      0.00%     62.92% # Class of committed instruction
system.cpu.op_class_0::SimdSqrt                     0      0.00%     62.92% # Class of committed instruction
system.cpu.op_class_0::SimdFloatAdd                 0      0.00%     62.92% # Class of committed instruction
system.cpu.op_class_0::SimdFloatAlu                 0      0.00%     62.92% # Class of committed instruction
system.cpu.op_class_0::SimdFloatCmp                 0      0.00%     62.92% # Class of committed instruction
system.cpu.op_class_0::SimdFloatCvt                 0      0.00%     62.92% # Class of committed instruction
system.cpu.op_class_0::SimdFloatDiv                 0      0.00%     62.92% # Class of committed instruction
system.cpu.op_class_0::SimdFloatMisc                0      0.00%     62.92% # Class of committed instruction
system.cpu.op_class_0::SimdFloatMult                0      0.00%     62.92% # Class of committed instruction
system.cpu.op_class_0::SimdFloatMultAcc             0      0.00%     62.92% # Class of committed instruction
system.cpu.op_class_0::SimdFloatSqrt                0      0.00%     62.92% # Class of committed instruction
system.cpu.op_class_0::SimdReduceAdd                0      0.00%     62.92% # Class of committed instruction
system.cpu.op_class_0::SimdReduceAlu                0      0.00%     62.92% # Class of committed instruction
system.cpu.op_class_0::SimdReduceCmp                0      0.00%     62.92% # Class of committed instruction
system.cpu.op_class_0::SimdFloatReduceAdd            0      0.00%     62.92% # Class of committed instruction
system.cpu.op_class_0::SimdFloatReduceCmp            0      0.00%     62.92% # Class of committed instruction
system.cpu.op_class_0::SimdAes                      0      0.00%     62.92% # Class of committed instruction
system.cpu.op_class_0::SimdAesMix                   0      0.00%     62.92% # Class of committed instruction
system.cpu.op_class_0::SimdSha1Hash                 0      0.00%     62.92% # Class of committed instruction
system.cpu.op_class_0::SimdSha1Hash2                0      0.00%     62.92% # Class of committed instruction
system.cpu.op_class_0::SimdSha256Hash               0      0.00%     62.92% # Class of committed instruction
system.cpu.op_class_0::SimdSha256Hash2              0      0.00%     62.92% # Class of committed instruction
system.cpu.op_class_0::SimdShaSigma2                0      0.00%     62.92% # Class of committed instruction
system.cpu.op_class_0::SimdShaSigma3                0      0.00%     62.92% # Class of committed instruction
system.cpu.op_class_0::SimdPredAlu                  0      0.00%     62.92% # Class of committed instruction
system.cpu.op_class_0::MemRead                 840413     20.01%     82.93% # Class of committed instruction
system.cpu.op_class_0::MemWrite                593282     14.12%     97.05% # Class of committed instruction
system.cpu.op_class_0::FloatMemRead              9988      0.24%     97.29% # Class of committed instruction
system.cpu.op_class_0::FloatMemWrite             8788      0.21%     97.50% # Class of committed instruction
system.cpu.op_class_0::IprAccess               104936      2.50%    100.00% # Class of committed instruction
system.cpu.op_class_0::InstPrefetch                 0      0.00%    100.00% # Class of committed instruction
system.cpu.op_class_0::total                  4200426                       # Class of committed instruction
system.cpu.quiesceCycles                        13644                       # Total number of cycles that CPU has spent quiesced or waiting for an interrupt
system.cpu.tickCycles                         7255541                       # Number of cycles that the object actually ticked
system.disk0.dma_read_bytes                         0                       # Number of bytes transfered via DMA reads (not PRD).
system.disk0.dma_read_full_pages                    0                       # Number of full page size DMA reads (not PRD).
system.disk0.dma_read_txs                           0                       # Number of DMA read transactions (not PRD).
system.disk0.dma_write_bytes                    12288                       # Number of bytes transfered via DMA writes.
system.disk0.dma_write_full_pages                   0                       # Number of full page size DMA writes.
system.disk0.dma_write_txs                          3                       # Number of DMA write transactions.
system.disk2.dma_read_bytes                         0                       # Number of bytes transfered via DMA reads (not PRD).
system.disk2.dma_read_full_pages                    0                       # Number of full page size DMA reads (not PRD).
system.disk2.dma_read_txs                           0                       # Number of DMA read transactions (not PRD).
system.disk2.dma_write_bytes                        0                       # Number of bytes transfered via DMA writes.
system.disk2.dma_write_full_pages                   0                       # Number of full page size DMA writes.
system.disk2.dma_write_txs                          0                       # Number of DMA write transactions.
system.membus.snoop_filter.hit_multi_requests          433                       # Number of requests hitting in the snoop filter with multiple (>1) holders of the requested data.
system.membus.snoop_filter.hit_multi_snoops            0                       # Number of snoops hitting in the snoop filter with multiple (>1) holders of the requested data.
system.membus.snoop_filter.hit_single_requests       158323                       # Number of requests hitting in the snoop filter with a single holder of the requested data.
system.membus.snoop_filter.hit_single_snoops            0                       # Number of snoops hitting in the snoop filter with a single holder of the requested data.
system.membus.snoop_filter.tot_requests        318252                       # Total number of requests made to the snoop filter.
system.membus.snoop_filter.tot_snoops               0                       # Total number of snoops made to the snoop filter.
system.tsunami.ethernet.coalescedRxDesc           nan                       # average number of RxDesc's coalesced into each post
system.tsunami.ethernet.coalescedRxIdle           nan                       # average number of RxIdle's coalesced into each post
system.tsunami.ethernet.coalescedRxOk             nan                       # average number of RxOk's coalesced into each post
system.tsunami.ethernet.coalescedRxOrn            nan                       # average number of RxOrn's coalesced into each post
system.tsunami.ethernet.coalescedSwi              nan                       # average number of Swi's coalesced into each post
system.tsunami.ethernet.coalescedTotal            nan                       # average number of interrupts coalesced into each post
system.tsunami.ethernet.coalescedTxDesc           nan                       # average number of TxDesc's coalesced into each post
system.tsunami.ethernet.coalescedTxIdle           nan                       # average number of TxIdle's coalesced into each post
system.tsunami.ethernet.coalescedTxOk             nan                       # average number of TxOk's coalesced into each post
system.tsunami.ethernet.descDMAReads                0                       # Number of descriptors the device read w/ DMA
system.tsunami.ethernet.descDMAWrites               0                       # Number of descriptors the device wrote w/ DMA
system.tsunami.ethernet.descDmaReadBytes            0                       # number of descriptor bytes read w/ DMA
system.tsunami.ethernet.descDmaWriteBytes            0                       # number of descriptor bytes write w/ DMA
system.tsunami.ethernet.droppedPackets              0                       # number of packets dropped
system.tsunami.ethernet.postedInterrupts            0                       # number of posts to CPU
system.tsunami.ethernet.postedRxDesc                0                       # number of RxDesc interrupts posted to CPU
system.tsunami.ethernet.postedRxIdle                0                       # number of rxIdle interrupts posted to CPU
system.tsunami.ethernet.postedRxOk                  0                       # number of RxOk interrupts posted to CPU
system.tsunami.ethernet.postedRxOrn                 0                       # number of RxOrn posted to CPU
system.tsunami.ethernet.postedSwi                   0                       # number of software interrupts posted to CPU
system.tsunami.ethernet.postedTxDesc                0                       # number of TxDesc interrupts posted to CPU
system.tsunami.ethernet.postedTxIdle                0                       # number of TxIdle interrupts posted to CPU
system.tsunami.ethernet.postedTxOk                  0                       # number of TxOk interrupts posted to CPU
system.tsunami.ethernet.totalRxDesc                 0                       # total number of RxDesc written to ISR
system.tsunami.ethernet.totalRxIdle                 0                       # total number of RxIdle written to ISR
system.tsunami.ethernet.totalRxOk                   0                       # total number of RxOk written to ISR
system.tsunami.ethernet.totalRxOrn                  0                       # total number of RxOrn written to ISR
system.tsunami.ethernet.totalSwi                    0                       # total number of Swi written to ISR
system.tsunami.ethernet.totalTxDesc                 0                       # total number of TxDesc written to ISR
system.tsunami.ethernet.totalTxIdle                 0                       # total number of TxIdle written to ISR
system.tsunami.ethernet.totalTxOk                   0                       # total number of TxOk written to ISR
system.bridge.pwrStateResidencyTicks::UNDEFINED 2542188291500                       # Cumulative time (in ticks) in various power states
system.voltage_domain.voltage                       1                       # Voltage in Volts
system.iocache.pwrStateResidencyTicks::UNDEFINED 2542188291500                       # Cumulative time (in ticks) in various power states
system.iocache.demand_misses::.tsunami.ide          195                       # number of demand (read+write) misses
system.iocache.demand_misses::total               195                       # number of demand (read+write) misses
system.iocache.overall_misses::.tsunami.ide          195                       # number of overall misses
system.iocache.overall_misses::total              195                       # number of overall misses
system.iocache.demand_miss_latency::.tsunami.ide     22722456                       # number of demand (read+write) miss cycles
system.iocache.demand_miss_latency::total     22722456                       # number of demand (read+write) miss cycles
system.iocache.overall_miss_latency::.tsunami.ide     22722456                       # number of overall miss cycles
system.iocache.overall_miss_latency::total     22722456                       # number of overall miss cycles
system.iocache.demand_accesses::.tsunami.ide          195                       # number of demand (read+write) accesses
system.iocache.demand_accesses::total             195                       # number of demand (read+write) accesses
system.iocache.overall_accesses::.tsunami.ide          195                       # number of overall (read+write) accesses
system.iocache.overall_accesses::total            195                       # number of overall (read+write) accesses
system.iocache.demand_miss_rate::.tsunami.ide            1                       # miss rate for demand accesses
system.iocache.demand_miss_rate::total              1                       # miss rate for demand accesses
system.iocache.overall_miss_rate::.tsunami.ide            1                       # miss rate for overall accesses
system.iocache.overall_miss_rate::total             1                       # miss rate for overall accesses
system.iocache.demand_avg_miss_latency::.tsunami.ide 116525.415385                       # average overall miss latency
system.iocache.demand_avg_miss_latency::total 116525.415385                       # average overall miss latency
system.iocache.overall_avg_miss_latency::.tsunami.ide 116525.415385                       # average overall miss latency
system.iocache.overall_avg_miss_latency::total 116525.415385                       # average overall miss latency
system.iocache.blocked_cycles::no_mshrs             0                       # number of cycles access was blocked
system.iocache.blocked_cycles::no_targets            0                       # number of cycles access was blocked
system.iocache.blocked::no_mshrs                    0                       # number of cycles access was blocked
system.iocache.blocked::no_targets                  0                       # number of cycles access was blocked
system.iocache.avg_blocked_cycles::no_mshrs          nan                       # average number of cycles each access was blocked
system.iocache.avg_blocked_cycles::no_targets          nan                       # average number of cycles each access was blocked
system.iocache.writebacks::.writebacks            176                       # number of writebacks
system.iocache.writebacks::total                  176                       # number of writebacks
system.iocache.demand_mshr_misses::.tsunami.ide          195                       # number of demand (read+write) MSHR misses
system.iocache.demand_mshr_misses::total          195                       # number of demand (read+write) MSHR misses
system.iocache.overall_mshr_misses::.tsunami.ide          195                       # number of overall MSHR misses
system.iocache.overall_mshr_misses::total          195                       # number of overall MSHR misses
system.iocache.demand_mshr_miss_latency::.tsunami.ide     12957492                       # number of demand (read+write) MSHR miss cycles
system.iocache.demand_mshr_miss_latency::total     12957492                       # number of demand (read+write) MSHR miss cycles
system.iocache.overall_mshr_miss_latency::.tsunami.ide     12957492                       # number of overall MSHR miss cycles
system.iocache.overall_mshr_miss_latency::total     12957492                       # number of overall MSHR miss cycles
system.iocache.demand_mshr_miss_rate::.tsunami.ide            1                       # mshr miss rate for demand accesses
system.iocache.demand_mshr_miss_rate::total            1                       # mshr miss rate for demand accesses
system.iocache.overall_mshr_miss_rate::.tsunami.ide            1                       # mshr miss rate for overall accesses
system.iocache.overall_mshr_miss_rate::total            1                       # mshr miss rate for overall accesses
system.iocache.demand_avg_mshr_miss_latency::.tsunami.ide 66448.676923                       # average overall mshr miss latency
system.iocache.demand_avg_mshr_miss_latency::total 66448.676923                       # average overall mshr miss latency
system.iocache.overall_avg_mshr_miss_latency::.tsunami.ide 66448.676923                       # average overall mshr miss latency
system.iocache.overall_avg_mshr_miss_latency::total 66448.676923                       # average overall mshr miss latency
system.iocache.replacements                       179                       # number of replacements
system.iocache.ReadReq_misses::.tsunami.ide            3                       # number of ReadReq misses
system.iocache.ReadReq_misses::total                3                       # number of ReadReq misses
system.iocache.ReadReq_miss_latency::.tsunami.ide       349497                       # number of ReadReq miss cycles
system.iocache.ReadReq_miss_latency::total       349497                       # number of ReadReq miss cycles
system.iocache.ReadReq_accesses::.tsunami.ide            3                       # number of ReadReq accesses(hits+misses)
system.iocache.ReadReq_accesses::total              3                       # number of ReadReq accesses(hits+misses)
system.iocache.ReadReq_miss_rate::.tsunami.ide            1                       # miss rate for ReadReq accesses
system.iocache.ReadReq_miss_rate::total             1                       # miss rate for ReadReq accesses
system.iocache.ReadReq_avg_miss_latency::.tsunami.ide       116499                       # average ReadReq miss latency
system.iocache.ReadReq_avg_miss_latency::total       116499                       # average ReadReq miss latency
system.iocache.ReadReq_mshr_misses::.tsunami.ide            3                       # number of ReadReq MSHR misses
system.iocache.ReadReq_mshr_misses::total            3                       # number of ReadReq MSHR misses
system.iocache.ReadReq_mshr_miss_latency::.tsunami.ide       199497                       # number of ReadReq MSHR miss cycles
system.iocache.ReadReq_mshr_miss_latency::total       199497                       # number of ReadReq MSHR miss cycles
system.iocache.ReadReq_mshr_miss_rate::.tsunami.ide            1                       # mshr miss rate for ReadReq accesses
system.iocache.ReadReq_mshr_miss_rate::total            1                       # mshr miss rate for ReadReq accesses
system.iocache.ReadReq_avg_mshr_miss_latency::.tsunami.ide        66499                       # average ReadReq mshr miss latency
system.iocache.ReadReq_avg_mshr_miss_latency::total        66499                       # average ReadReq mshr miss latency
system.iocache.WriteLineReq_misses::.tsunami.ide          192                       # number of WriteLineReq misses
system.iocache.WriteLineReq_misses::total          192                       # number of WriteLineReq misses
system.iocache.WriteLineReq_miss_latency::.tsunami.ide     22372959                       # number of WriteLineReq miss cycles
system.iocache.WriteLineReq_miss_latency::total     22372959                       # number of WriteLineReq miss cycles
system.iocache.WriteLineReq_accesses::.tsunami.ide          192                       # number of WriteLineReq accesses(hits+misses)
system.iocache.WriteLineReq_accesses::total          192                       # number of WriteLineReq accesses(hits+misses)
system.iocache.WriteLineReq_miss_rate::.tsunami.ide            1                       # miss rate for WriteLineReq accesses
system.iocache.WriteLineReq_miss_rate::total            1                       # miss rate for WriteLineReq accesses
system.iocache.WriteLineReq_avg_miss_latency::.tsunami.ide 116525.828125                       # average WriteLineReq miss latency
system.iocache.WriteLineReq_avg_miss_latency::total 116525.828125                       # average WriteLineReq miss latency
system.iocache.WriteLineReq_mshr_misses::.tsunami.ide          192                       # number of WriteLineReq MSHR misses
system.iocache.WriteLineReq_mshr_misses::total          192                       # number of WriteLineReq MSHR misses
system.iocache.WriteLineReq_mshr_miss_latency::.tsunami.ide     12757995                       # number of WriteLineReq MSHR miss cycles
system.iocache.WriteLineReq_mshr_miss_latency::total     12757995                       # number of WriteLineReq MSHR miss cycles
system.iocache.WriteLineReq_mshr_miss_rate::.tsunami.ide            1                       # mshr miss rate for WriteLineReq accesses
system.iocache.WriteLineReq_mshr_miss_rate::total            1                       # mshr miss rate for WriteLineReq accesses
system.iocache.WriteLineReq_avg_mshr_miss_latency::.tsunami.ide 66447.890625                       # average WriteLineReq mshr miss latency
system.iocache.WriteLineReq_avg_mshr_miss_latency::total 66447.890625                       # average WriteLineReq mshr miss latency
system.iocache.tags.pwrStateResidencyTicks::UNDEFINED 2542188291500                       # Cumulative time (in ticks) in various power states
system.iocache.tags.tagsinuse                3.291395                       # Cycle average of tags in use
system.iocache.tags.total_refs                    179                       # Total number of references to valid blocks.
system.iocache.tags.sampled_refs                  179                       # Sample count of references to valid blocks.
system.iocache.tags.avg_refs                        1                       # Average number of references to valid blocks.
system.iocache.tags.warmup_cycle         2539681959000                       # Cycle when the warmup percentage was hit.
system.iocache.tags.occ_blocks::.tsunami.ide     3.291395                       # Average occupied blocks per requestor
system.iocache.tags.occ_percent::.tsunami.ide     0.205712                       # Average percentage of cache occupancy
system.iocache.tags.occ_percent::total       0.205712                       # Average percentage of cache occupancy
system.iocache.tags.occ_task_id_blocks::1023           16                       # Occupied blocks per task id
system.iocache.tags.age_task_id_blocks_1023::3           16                       # Occupied blocks per task id
system.iocache.tags.occ_task_id_percent::1023            1                       # Percentage of cache occupancy per task id
system.iocache.tags.tag_accesses                 1755                       # Number of tag accesses
system.iocache.tags.data_accesses                1755                       # Number of data accesses
system.membus.pwrStateResidencyTicks::UNDEFINED 2542188291500                       # Cumulative time (in ticks) in various power states
system.membus.trans_dist::ReadReq                 108                       # Transaction distribution
system.membus.trans_dist::ReadResp             130894                       # Transaction distribution
system.membus.trans_dist::WriteReq                100                       # Transaction distribution
system.membus.trans_dist::WriteResp               100                       # Transaction distribution
system.membus.trans_dist::WritebackDirty        34887                       # Transaction distribution
system.membus.trans_dist::WritebackClean        88853                       # Transaction distribution
system.membus.trans_dist::CleanEvict            34562                       # Transaction distribution
system.membus.trans_dist::UpgradeReq               15                       # Transaction distribution
system.membus.trans_dist::ReadExReq             28954                       # Transaction distribution
system.membus.trans_dist::ReadExResp            28954                       # Transaction distribution
system.membus.trans_dist::ReadCleanReq          89443                       # Transaction distribution
system.membus.trans_dist::ReadSharedReq         41346                       # Transaction distribution
system.membus.trans_dist::BadAddressError            3                       # Transaction distribution
system.membus.trans_dist::InvalidateReq           192                       # Transaction distribution
system.membus.pkt_count_system.iocache.mem_side::system.mem_ctrls.port          374                       # Packet count per connected master and slave (bytes)
system.membus.pkt_count_system.iocache.mem_side::total          374                       # Packet count per connected master and slave (bytes)
system.membus.pkt_count_system.cpu.icache.mem_side::system.mem_ctrls.port       267677                       # Packet count per connected master and slave (bytes)
system.membus.pkt_count_system.cpu.icache.mem_side::total       267677                       # Packet count per connected master and slave (bytes)
system.membus.pkt_count_system.cpu.dcache.mem_side::system.bridge.slave          416                       # Packet count per connected master and slave (bytes)
system.membus.pkt_count_system.cpu.dcache.mem_side::system.mem_ctrls.port       209873                       # Packet count per connected master and slave (bytes)
system.membus.pkt_count_system.cpu.dcache.mem_side::system.membus.badaddr_responder.pio            6                       # Packet count per connected master and slave (bytes)
system.membus.pkt_count_system.cpu.dcache.mem_side::total       210295                       # Packet count per connected master and slave (bytes)
system.membus.pkt_count::total                 478346                       # Packet count per connected master and slave (bytes)
system.membus.pkt_size_system.iocache.mem_side::system.mem_ctrls.port        11264                       # Cumulative packet size per connected master and slave (bytes)
system.membus.pkt_size_system.iocache.mem_side::total        11264                       # Cumulative packet size per connected master and slave (bytes)
system.membus.pkt_size_system.cpu.icache.mem_side::system.mem_ctrls.port     11406976                       # Cumulative packet size per connected master and slave (bytes)
system.membus.pkt_size_system.cpu.icache.mem_side::total     11406976                       # Cumulative packet size per connected master and slave (bytes)
system.membus.pkt_size_system.cpu.dcache.mem_side::system.bridge.slave          441                       # Cumulative packet size per connected master and slave (bytes)
system.membus.pkt_size_system.cpu.dcache.mem_side::system.mem_ctrls.port      6720320                       # Cumulative packet size per connected master and slave (bytes)
system.membus.pkt_size_system.cpu.dcache.mem_side::total      6720761                       # Cumulative packet size per connected master and slave (bytes)
system.membus.pkt_size::total                18139001                       # Cumulative packet size per connected master and slave (bytes)
system.membus.snoops                               65                       # Total snoops (count)
system.membus.snoopTraffic                       4160                       # Total snoop traffic (bytes)
system.membus.snoop_fanout::samples            160158                       # Request fanout histogram
system.membus.snoop_fanout::mean             0.002710                       # Request fanout histogram
system.membus.snoop_fanout::stdev            0.051986                       # Request fanout histogram
system.membus.snoop_fanout::underflows              0      0.00%      0.00% # Request fanout histogram
system.membus.snoop_fanout::0                  159724     99.73%     99.73% # Request fanout histogram
system.membus.snoop_fanout::1                     434      0.27%    100.00% # Request fanout histogram
system.membus.snoop_fanout::2                       0      0.00%    100.00% # Request fanout histogram
system.membus.snoop_fanout::3                       0      0.00%    100.00% # Request fanout histogram
system.membus.snoop_fanout::overflows               0      0.00%    100.00% # Request fanout histogram
system.membus.snoop_fanout::min_value               0                       # Request fanout histogram
system.membus.snoop_fanout::max_value               1                       # Request fanout histogram
system.membus.snoop_fanout::total              160158                       # Request fanout histogram
system.membus.reqLayer0.occupancy              353000                       # Layer occupancy (ticks)
system.membus.reqLayer0.utilization               0.0                       # Layer utilization (%)
system.membus.reqLayer1.occupancy           836506039                       # Layer occupancy (ticks)
system.membus.reqLayer1.utilization               6.9                       # Layer utilization (%)
system.membus.reqLayer2.occupancy                4500                       # Layer occupancy (ticks)
system.membus.reqLayer2.utilization               0.0                       # Layer utilization (%)
system.membus.respLayer1.occupancy              17997                       # Layer occupancy (ticks)
system.membus.respLayer1.utilization              0.0                       # Layer utilization (%)
system.membus.respLayer3.occupancy          378238250                       # Layer occupancy (ticks)
system.membus.respLayer3.utilization              3.1                       # Layer utilization (%)
system.membus.badaddr_responder.pwrStateResidencyTicks::UNDEFINED 2542188291500                       # Cumulative time (in ticks) in various power states
system.membus.respLayer2.occupancy          474352750                       # Layer occupancy (ticks)
system.membus.respLayer2.utilization              3.9                       # Layer utilization (%)
system.clk_domain.clock                          1000                       # Clock period in ticks
system.tsunami.fake_uart1.pwrStateResidencyTicks::UNDEFINED 2542188291500                       # Cumulative time (in ticks) in various power states
system.tsunami.fake_uart2.pwrStateResidencyTicks::UNDEFINED 2542188291500                       # Cumulative time (in ticks) in various power states
system.tsunami.fake_uart3.pwrStateResidencyTicks::UNDEFINED 2542188291500                       # Cumulative time (in ticks) in various power states
system.tsunami.fake_uart4.pwrStateResidencyTicks::UNDEFINED 2542188291500                       # Cumulative time (in ticks) in various power states
system.tsunami.fake_ppc.pwrStateResidencyTicks::UNDEFINED 2542188291500                       # Cumulative time (in ticks) in various power states
system.tsunami.cchip.pwrStateResidencyTicks::UNDEFINED 2542188291500                       # Cumulative time (in ticks) in various power states
system.tsunami.io.pwrStateResidencyTicks::UNDEFINED 2542188291500                       # Cumulative time (in ticks) in various power states
system.tsunami.pchip.pwrStateResidencyTicks::UNDEFINED 2542188291500                       # Cumulative time (in ticks) in various power states
system.tsunami.fake_ata1.pwrStateResidencyTicks::UNDEFINED 2542188291500                       # Cumulative time (in ticks) in various power states
system.tsunami.fake_ata0.pwrStateResidencyTicks::UNDEFINED 2542188291500                       # Cumulative time (in ticks) in various power states
system.tsunami.backdoor.pwrStateResidencyTicks::UNDEFINED 2542188291500                       # Cumulative time (in ticks) in various power states
system.tsunami.fake_pnp_read3.pwrStateResidencyTicks::UNDEFINED 2542188291500                       # Cumulative time (in ticks) in various power states
system.tsunami.fake_pnp_read2.pwrStateResidencyTicks::UNDEFINED 2542188291500                       # Cumulative time (in ticks) in various power states
system.tsunami.fake_pnp_read1.pwrStateResidencyTicks::UNDEFINED 2542188291500                       # Cumulative time (in ticks) in various power states
system.tsunami.fake_pnp_read0.pwrStateResidencyTicks::UNDEFINED 2542188291500                       # Cumulative time (in ticks) in various power states
system.tsunami.fake_pnp_read7.pwrStateResidencyTicks::UNDEFINED 2542188291500                       # Cumulative time (in ticks) in various power states
system.tsunami.fake_pnp_read6.pwrStateResidencyTicks::UNDEFINED 2542188291500                       # Cumulative time (in ticks) in various power states
system.tsunami.fake_pnp_read5.pwrStateResidencyTicks::UNDEFINED 2542188291500                       # Cumulative time (in ticks) in various power states
system.tsunami.fake_pnp_read4.pwrStateResidencyTicks::UNDEFINED 2542188291500                       # Cumulative time (in ticks) in various power states
system.tsunami.fake_pnp_write.pwrStateResidencyTicks::UNDEFINED 2542188291500                       # Cumulative time (in ticks) in various power states
system.tsunami.fb.pwrStateResidencyTicks::UNDEFINED 2542188291500                       # Cumulative time (in ticks) in various power states
system.tsunami.fake_pnp_addr.pwrStateResidencyTicks::UNDEFINED 2542188291500                       # Cumulative time (in ticks) in various power states
system.tsunami.fake_OROM.pwrStateResidencyTicks::UNDEFINED 2542188291500                       # Cumulative time (in ticks) in various power states
system.tsunami.uart.pwrStateResidencyTicks::UNDEFINED 2542188291500                       # Cumulative time (in ticks) in various power states
system.tsunami.fake_sm_chip.pwrStateResidencyTicks::UNDEFINED 2542188291500                       # Cumulative time (in ticks) in various power states
system.tsunami.ethernet.pwrStateResidencyTicks::UNDEFINED 2542188291500                       # Cumulative time (in ticks) in various power states
system.tsunami.ide.pwrStateResidencyTicks::UNDEFINED 2542188291500                       # Cumulative time (in ticks) in various power states
system.cpu_voltage_domain.voltage                   1                       # Voltage in Volts
system.mem_ctrls.pwrStateResidencyTicks::UNDEFINED 2542188291500                       # Cumulative time (in ticks) in various power states
system.mem_ctrls.bytes_read::.cpu.inst        5720384                       # Number of bytes read from this memory
system.mem_ctrls.bytes_read::.cpu.data        4498816                       # Number of bytes read from this memory
system.mem_ctrls.bytes_read::total           10219200                       # Number of bytes read from this memory
system.mem_ctrls.bytes_inst_read::.cpu.inst      5720384                       # Number of instructions bytes read from this memory
system.mem_ctrls.bytes_inst_read::total       5720384                       # Number of instructions bytes read from this memory
system.mem_ctrls.bytes_written::.writebacks      2232768                       # Number of bytes written to this memory
system.mem_ctrls.bytes_written::total         2232768                       # Number of bytes written to this memory
system.mem_ctrls.num_reads::.cpu.inst           89381                       # Number of read requests responded to by this memory
system.mem_ctrls.num_reads::.cpu.data           70294                       # Number of read requests responded to by this memory
system.mem_ctrls.num_reads::total              159675                       # Number of read requests responded to by this memory
system.mem_ctrls.num_writes::.writebacks        34887                       # Number of write requests responded to by this memory
system.mem_ctrls.num_writes::total              34887                       # Number of write requests responded to by this memory
system.mem_ctrls.bw_read::.cpu.inst         469713769                       # Total read bandwidth from this memory (bytes/s)
system.mem_ctrls.bw_read::.cpu.data         369408036                       # Total read bandwidth from this memory (bytes/s)
system.mem_ctrls.bw_read::total             839121804                       # Total read bandwidth from this memory (bytes/s)
system.mem_ctrls.bw_inst_read::.cpu.inst    469713769                       # Instruction read bandwidth from this memory (bytes/s)
system.mem_ctrls.bw_inst_read::total        469713769                       # Instruction read bandwidth from this memory (bytes/s)
system.mem_ctrls.bw_write::.writebacks      183337670                       # Write bandwidth from this memory (bytes/s)
system.mem_ctrls.bw_write::total            183337670                       # Write bandwidth from this memory (bytes/s)
system.mem_ctrls.bw_total::.writebacks      183337670                       # Total bandwidth to/from this memory (bytes/s)
system.mem_ctrls.bw_total::.cpu.inst        469713769                       # Total bandwidth to/from this memory (bytes/s)
system.mem_ctrls.bw_total::.cpu.data        369408036                       # Total bandwidth to/from this memory (bytes/s)
system.mem_ctrls.bw_total::total           1022459474                       # Total bandwidth to/from this memory (bytes/s)
system.mem_ctrls.avgPriority_.writebacks::samples    121489.00                       # Average QoS priority value for accepted requests
system.mem_ctrls.avgPriority_.cpu.inst::samples     79470.00                       # Average QoS priority value for accepted requests
system.mem_ctrls.avgPriority_.cpu.data::samples     69803.00                       # Average QoS priority value for accepted requests
system.mem_ctrls.priorityMinLatency      0.000000018750                       # per QoS priority minimum request to response latency (s)
system.mem_ctrls.priorityMaxLatency      0.000197944250                       # per QoS priority maximum request to response latency (s)
system.mem_ctrls.numReadWriteTurnArounds         7474                       # Number of turnarounds from READ to WRITE
system.mem_ctrls.numWriteReadTurnArounds         7474                       # Number of turnarounds from WRITE to READ
system.mem_ctrls.numStayReadState              414247                       # Number of times bus staying in READ state
system.mem_ctrls.numStayWriteState             114138                       # Number of times bus staying in WRITE state
system.mem_ctrls.readReqs                      159675                       # Number of read requests accepted
system.mem_ctrls.writeReqs                     123525                       # Number of write requests accepted
system.mem_ctrls.readBursts                    159675                       # Number of DRAM read bursts, including those serviced by the write queue
system.mem_ctrls.writeBursts                   123525                       # Number of DRAM write bursts, including those merged in the write queue
system.mem_ctrls.servicedByWrQ                  10402                       # Number of DRAM read bursts serviced by the write queue
system.mem_ctrls.mergedWrBursts                  2036                       # Number of DRAM write bursts merged with an existing one
system.mem_ctrls.neitherReadNorWriteReqs            0                       # Number of requests that are neither read nor write
system.mem_ctrls.perBankRdBursts::0              8983                       # Per bank write bursts
system.mem_ctrls.perBankRdBursts::1              6670                       # Per bank write bursts
system.mem_ctrls.perBankRdBursts::2             10306                       # Per bank write bursts
system.mem_ctrls.perBankRdBursts::3              7270                       # Per bank write bursts
system.mem_ctrls.perBankRdBursts::4              8668                       # Per bank write bursts
system.mem_ctrls.perBankRdBursts::5             10037                       # Per bank write bursts
system.mem_ctrls.perBankRdBursts::6              8785                       # Per bank write bursts
system.mem_ctrls.perBankRdBursts::7              8831                       # Per bank write bursts
system.mem_ctrls.perBankRdBursts::8             12034                       # Per bank write bursts
system.mem_ctrls.perBankRdBursts::9              9386                       # Per bank write bursts
system.mem_ctrls.perBankRdBursts::10            10834                       # Per bank write bursts
system.mem_ctrls.perBankRdBursts::11            12207                       # Per bank write bursts
system.mem_ctrls.perBankRdBursts::12             8887                       # Per bank write bursts
system.mem_ctrls.perBankRdBursts::13            13789                       # Per bank write bursts
system.mem_ctrls.perBankRdBursts::14             5613                       # Per bank write bursts
system.mem_ctrls.perBankRdBursts::15             6973                       # Per bank write bursts
system.mem_ctrls.perBankWrBursts::0              7325                       # Per bank write bursts
system.mem_ctrls.perBankWrBursts::1              4471                       # Per bank write bursts
system.mem_ctrls.perBankWrBursts::2              9050                       # Per bank write bursts
system.mem_ctrls.perBankWrBursts::3              8054                       # Per bank write bursts
system.mem_ctrls.perBankWrBursts::4              7862                       # Per bank write bursts
system.mem_ctrls.perBankWrBursts::5              9754                       # Per bank write bursts
system.mem_ctrls.perBankWrBursts::6              7589                       # Per bank write bursts
system.mem_ctrls.perBankWrBursts::7              7009                       # Per bank write bursts
system.mem_ctrls.perBankWrBursts::8             10867                       # Per bank write bursts
system.mem_ctrls.perBankWrBursts::9              8556                       # Per bank write bursts
system.mem_ctrls.perBankWrBursts::10             8159                       # Per bank write bursts
system.mem_ctrls.perBankWrBursts::11             8142                       # Per bank write bursts
system.mem_ctrls.perBankWrBursts::12             5498                       # Per bank write bursts
system.mem_ctrls.perBankWrBursts::13            10134                       # Per bank write bursts
system.mem_ctrls.perBankWrBursts::14             3221                       # Per bank write bursts
system.mem_ctrls.perBankWrBursts::15             5778                       # Per bank write bursts
system.mem_ctrls.avgRdQLen                       1.09                       # Average read queue length when enqueuing
system.mem_ctrls.avgWrQLen                      25.67                       # Average write queue length when enqueuing
system.mem_ctrls.totQLat                   2041315000                       # Total ticks spent queuing
system.mem_ctrls.totBusLat                  746365000                       # Total ticks spent in databus transfers
system.mem_ctrls.totMemAccLat              4840183750                       # Total ticks spent from burst creation until serviced by the DRAM
system.mem_ctrls.avgQLat                     13675.05                       # Average queueing delay per DRAM burst
system.mem_ctrls.avgBusLat                    5000.00                       # Average bus latency per DRAM burst
system.mem_ctrls.avgMemAccLat                32425.05                       # Average memory access latency per DRAM burst
system.mem_ctrls.numRdRetry                         0                       # Number of times read queue was full causing retry
system.mem_ctrls.numWrRetry                         0                       # Number of times write queue was full causing retry
system.mem_ctrls.readRowHits                   105621                       # Number of row buffer hits during reads
system.mem_ctrls.writeRowHits                   81881                       # Number of row buffer hits during writes
system.mem_ctrls.readRowHitRate                 70.76                       # Row buffer hit rate for reads
system.mem_ctrls.writeRowHitRate                67.40                       # Row buffer hit rate for writes
system.mem_ctrls.readPktSize::0                     0                       # Read request sizes (log2)
system.mem_ctrls.readPktSize::1                     0                       # Read request sizes (log2)
system.mem_ctrls.readPktSize::2                     0                       # Read request sizes (log2)
system.mem_ctrls.readPktSize::3                     0                       # Read request sizes (log2)
system.mem_ctrls.readPktSize::4                     0                       # Read request sizes (log2)
system.mem_ctrls.readPktSize::5                     0                       # Read request sizes (log2)
system.mem_ctrls.readPktSize::6                159675                       # Read request sizes (log2)
system.mem_ctrls.writePktSize::0                    0                       # Write request sizes (log2)
system.mem_ctrls.writePktSize::1                    0                       # Write request sizes (log2)
system.mem_ctrls.writePktSize::2                    0                       # Write request sizes (log2)
system.mem_ctrls.writePktSize::3                    0                       # Write request sizes (log2)
system.mem_ctrls.writePktSize::4                    0                       # Write request sizes (log2)
system.mem_ctrls.writePktSize::5                    0                       # Write request sizes (log2)
system.mem_ctrls.writePktSize::6               123525                       # Write request sizes (log2)
system.mem_ctrls.rdQLenPdf::0                  136814                       # What read queue length does an incoming req see
system.mem_ctrls.rdQLenPdf::1                   12155                       # What read queue length does an incoming req see
system.mem_ctrls.rdQLenPdf::2                     304                       # What read queue length does an incoming req see
system.mem_ctrls.rdQLenPdf::3                       0                       # What read queue length does an incoming req see
system.mem_ctrls.rdQLenPdf::4                       0                       # What read queue length does an incoming req see
system.mem_ctrls.rdQLenPdf::5                       0                       # What read queue length does an incoming req see
system.mem_ctrls.rdQLenPdf::6                       0                       # What read queue length does an incoming req see
system.mem_ctrls.rdQLenPdf::7                       0                       # What read queue length does an incoming req see
system.mem_ctrls.rdQLenPdf::8                       0                       # What read queue length does an incoming req see
system.mem_ctrls.rdQLenPdf::9                       0                       # What read queue length does an incoming req see
system.mem_ctrls.rdQLenPdf::10                      0                       # What read queue length does an incoming req see
system.mem_ctrls.rdQLenPdf::11                      0                       # What read queue length does an incoming req see
system.mem_ctrls.rdQLenPdf::12                      0                       # What read queue length does an incoming req see
system.mem_ctrls.rdQLenPdf::13                      0                       # What read queue length does an incoming req see
system.mem_ctrls.rdQLenPdf::14                      0                       # What read queue length does an incoming req see
system.mem_ctrls.rdQLenPdf::15                      0                       # What read queue length does an incoming req see
system.mem_ctrls.rdQLenPdf::16                      0                       # What read queue length does an incoming req see
system.mem_ctrls.rdQLenPdf::17                      0                       # What read queue length does an incoming req see
system.mem_ctrls.rdQLenPdf::18                      0                       # What read queue length does an incoming req see
system.mem_ctrls.rdQLenPdf::19                      0                       # What read queue length does an incoming req see
system.mem_ctrls.rdQLenPdf::20                      0                       # What read queue length does an incoming req see
system.mem_ctrls.rdQLenPdf::21                      0                       # What read queue length does an incoming req see
system.mem_ctrls.rdQLenPdf::22                      0                       # What read queue length does an incoming req see
system.mem_ctrls.rdQLenPdf::23                      0                       # What read queue length does an incoming req see
system.mem_ctrls.rdQLenPdf::24                      0                       # What read queue length does an incoming req see
system.mem_ctrls.rdQLenPdf::25                      0                       # What read queue length does an incoming req see
system.mem_ctrls.rdQLenPdf::26                      0                       # What read queue length does an incoming req see
system.mem_ctrls.rdQLenPdf::27                      0                       # What read queue length does an incoming req see
system.mem_ctrls.rdQLenPdf::28                      0                       # What read queue length does an incoming req see
system.mem_ctrls.rdQLenPdf::29                      0                       # What read queue length does an incoming req see
system.mem_ctrls.rdQLenPdf::30                      0                       # What read queue length does an incoming req see
system.mem_ctrls.rdQLenPdf::31                      0                       # What read queue length does an incoming req see
system.mem_ctrls.wrQLenPdf::0                       1                       # What write queue length does an incoming req see
system.mem_ctrls.wrQLenPdf::1                       1                       # What write queue length does an incoming req see
system.mem_ctrls.wrQLenPdf::2                       1                       # What write queue length does an incoming req see
system.mem_ctrls.wrQLenPdf::3                       1                       # What write queue length does an incoming req see
system.mem_ctrls.wrQLenPdf::4                       1                       # What write queue length does an incoming req see
system.mem_ctrls.wrQLenPdf::5                       1                       # What write queue length does an incoming req see
system.mem_ctrls.wrQLenPdf::6                       1                       # What write queue length does an incoming req see
system.mem_ctrls.wrQLenPdf::7                       1                       # What write queue length does an incoming req see
system.mem_ctrls.wrQLenPdf::8                       1                       # What write queue length does an incoming req see
system.mem_ctrls.wrQLenPdf::9                       1                       # What write queue length does an incoming req see
system.mem_ctrls.wrQLenPdf::10                      1                       # What write queue length does an incoming req see
system.mem_ctrls.wrQLenPdf::11                      1                       # What write queue length does an incoming req see
system.mem_ctrls.wrQLenPdf::12                      1                       # What write queue length does an incoming req see
system.mem_ctrls.wrQLenPdf::13                      1                       # What write queue length does an incoming req see
system.mem_ctrls.wrQLenPdf::14                      1                       # What write queue length does an incoming req see
system.mem_ctrls.wrQLenPdf::15                    697                       # What write queue length does an incoming req see
system.mem_ctrls.wrQLenPdf::16                    802                       # What write queue length does an incoming req see
system.mem_ctrls.wrQLenPdf::17                   6874                       # What write queue length does an incoming req see
system.mem_ctrls.wrQLenPdf::18                   7497                       # What write queue length does an incoming req see
system.mem_ctrls.wrQLenPdf::19                   7583                       # What write queue length does an incoming req see
system.mem_ctrls.wrQLenPdf::20                   7556                       # What write queue length does an incoming req see
system.mem_ctrls.wrQLenPdf::21                   7551                       # What write queue length does an incoming req see
system.mem_ctrls.wrQLenPdf::22                   7648                       # What write queue length does an incoming req see
system.mem_ctrls.wrQLenPdf::23                   7555                       # What write queue length does an incoming req see
system.mem_ctrls.wrQLenPdf::24                   7545                       # What write queue length does an incoming req see
system.mem_ctrls.wrQLenPdf::25                   7555                       # What write queue length does an incoming req see
system.mem_ctrls.wrQLenPdf::26                   7575                       # What write queue length does an incoming req see
system.mem_ctrls.wrQLenPdf::27                   7517                       # What write queue length does an incoming req see
system.mem_ctrls.wrQLenPdf::28                   7519                       # What write queue length does an incoming req see
system.mem_ctrls.wrQLenPdf::29                   7500                       # What write queue length does an incoming req see
system.mem_ctrls.wrQLenPdf::30                   7476                       # What write queue length does an incoming req see
system.mem_ctrls.wrQLenPdf::31                   7473                       # What write queue length does an incoming req see
system.mem_ctrls.wrQLenPdf::32                   7472                       # What write queue length does an incoming req see
system.mem_ctrls.wrQLenPdf::33                     15                       # What write queue length does an incoming req see
system.mem_ctrls.wrQLenPdf::34                      8                       # What write queue length does an incoming req see
system.mem_ctrls.wrQLenPdf::35                     12                       # What write queue length does an incoming req see
system.mem_ctrls.wrQLenPdf::36                      2                       # What write queue length does an incoming req see
system.mem_ctrls.wrQLenPdf::37                      2                       # What write queue length does an incoming req see
system.mem_ctrls.wrQLenPdf::38                      1                       # What write queue length does an incoming req see
system.mem_ctrls.wrQLenPdf::39                      1                       # What write queue length does an incoming req see
system.mem_ctrls.wrQLenPdf::40                      2                       # What write queue length does an incoming req see
system.mem_ctrls.wrQLenPdf::41                      1                       # What write queue length does an incoming req see
system.mem_ctrls.wrQLenPdf::42                      1                       # What write queue length does an incoming req see
system.mem_ctrls.wrQLenPdf::43                      1                       # What write queue length does an incoming req see
system.mem_ctrls.wrQLenPdf::44                      1                       # What write queue length does an incoming req see
system.mem_ctrls.wrQLenPdf::45                      1                       # What write queue length does an incoming req see
system.mem_ctrls.wrQLenPdf::46                      1                       # What write queue length does an incoming req see
system.mem_ctrls.wrQLenPdf::47                      1                       # What write queue length does an incoming req see
system.mem_ctrls.wrQLenPdf::48                      1                       # What write queue length does an incoming req see
system.mem_ctrls.wrQLenPdf::49                      1                       # What write queue length does an incoming req see
system.mem_ctrls.wrQLenPdf::50                      1                       # What write queue length does an incoming req see
system.mem_ctrls.wrQLenPdf::51                      1                       # What write queue length does an incoming req see
system.mem_ctrls.wrQLenPdf::52                      1                       # What write queue length does an incoming req see
system.mem_ctrls.wrQLenPdf::53                      2                       # What write queue length does an incoming req see
system.mem_ctrls.wrQLenPdf::54                      5                       # What write queue length does an incoming req see
system.mem_ctrls.wrQLenPdf::55                      3                       # What write queue length does an incoming req see
system.mem_ctrls.wrQLenPdf::56                      2                       # What write queue length does an incoming req see
system.mem_ctrls.wrQLenPdf::57                     11                       # What write queue length does an incoming req see
system.mem_ctrls.wrQLenPdf::58                      1                       # What write queue length does an incoming req see
system.mem_ctrls.wrQLenPdf::59                      0                       # What write queue length does an incoming req see
system.mem_ctrls.wrQLenPdf::60                      0                       # What write queue length does an incoming req see
system.mem_ctrls.wrQLenPdf::61                      0                       # What write queue length does an incoming req see
system.mem_ctrls.wrQLenPdf::62                      0                       # What write queue length does an incoming req see
system.mem_ctrls.wrQLenPdf::63                      0                       # What write queue length does an incoming req see
system.mem_ctrls.bytesPerActivate::samples        83233                       # Bytes accessed per row activation
system.mem_ctrls.bytesPerActivate::mean    208.171278                       # Bytes accessed per row activation
system.mem_ctrls.bytesPerActivate::gmean   139.969193                       # Bytes accessed per row activation
system.mem_ctrls.bytesPerActivate::stdev   224.814794                       # Bytes accessed per row activation
system.mem_ctrls.bytesPerActivate::0-127        35361     42.48%     42.48% # Bytes accessed per row activation
system.mem_ctrls.bytesPerActivate::128-255        24807     29.80%     72.29% # Bytes accessed per row activation
system.mem_ctrls.bytesPerActivate::256-383         9999     12.01%     84.30% # Bytes accessed per row activation
system.mem_ctrls.bytesPerActivate::384-511         4740      5.69%     90.00% # Bytes accessed per row activation
system.mem_ctrls.bytesPerActivate::512-639         2476      2.97%     92.97% # Bytes accessed per row activation
system.mem_ctrls.bytesPerActivate::640-767         1452      1.74%     94.72% # Bytes accessed per row activation
system.mem_ctrls.bytesPerActivate::768-895          979      1.18%     95.89% # Bytes accessed per row activation
system.mem_ctrls.bytesPerActivate::896-1023          572      0.69%     96.58% # Bytes accessed per row activation
system.mem_ctrls.bytesPerActivate::1024-1151         2847      3.42%    100.00% # Bytes accessed per row activation
system.mem_ctrls.bytesPerActivate::total        83233                       # Bytes accessed per row activation
system.mem_ctrls.rdPerTurnAround::samples         7474                       # Reads before turning the bus around for writes
system.mem_ctrls.rdPerTurnAround::mean      19.972036                       # Reads before turning the bus around for writes
system.mem_ctrls.rdPerTurnAround::gmean     18.388020                       # Reads before turning the bus around for writes
system.mem_ctrls.rdPerTurnAround::stdev     12.655526                       # Reads before turning the bus around for writes
system.mem_ctrls.rdPerTurnAround::0-15           1333     17.84%     17.84% # Reads before turning the bus around for writes
system.mem_ctrls.rdPerTurnAround::16-31          5655     75.66%     93.50% # Reads before turning the bus around for writes
system.mem_ctrls.rdPerTurnAround::32-47           304      4.07%     97.56% # Reads before turning the bus around for writes
system.mem_ctrls.rdPerTurnAround::48-63            80      1.07%     98.64% # Reads before turning the bus around for writes
system.mem_ctrls.rdPerTurnAround::64-79            34      0.45%     99.09% # Reads before turning the bus around for writes
system.mem_ctrls.rdPerTurnAround::80-95            28      0.37%     99.46% # Reads before turning the bus around for writes
system.mem_ctrls.rdPerTurnAround::96-111           20      0.27%     99.73% # Reads before turning the bus around for writes
system.mem_ctrls.rdPerTurnAround::112-127            5      0.07%     99.80% # Reads before turning the bus around for writes
system.mem_ctrls.rdPerTurnAround::128-143            7      0.09%     99.89% # Reads before turning the bus around for writes
system.mem_ctrls.rdPerTurnAround::144-159            3      0.04%     99.93% # Reads before turning the bus around for writes
system.mem_ctrls.rdPerTurnAround::176-191            1      0.01%     99.95% # Reads before turning the bus around for writes
system.mem_ctrls.rdPerTurnAround::192-207            1      0.01%     99.96% # Reads before turning the bus around for writes
system.mem_ctrls.rdPerTurnAround::208-223            1      0.01%     99.97% # Reads before turning the bus around for writes
system.mem_ctrls.rdPerTurnAround::256-271            1      0.01%     99.99% # Reads before turning the bus around for writes
system.mem_ctrls.rdPerTurnAround::416-431            1      0.01%    100.00% # Reads before turning the bus around for writes
system.mem_ctrls.rdPerTurnAround::total          7474                       # Reads before turning the bus around for writes
system.mem_ctrls.wrPerTurnAround::samples         7474                       # Writes before turning the bus around for reads
system.mem_ctrls.wrPerTurnAround::mean      16.252208                       # Writes before turning the bus around for reads
system.mem_ctrls.wrPerTurnAround::gmean     16.235757                       # Writes before turning the bus around for reads
system.mem_ctrls.wrPerTurnAround::stdev      0.765018                       # Writes before turning the bus around for reads
system.mem_ctrls.wrPerTurnAround::16             6656     89.06%     89.06% # Writes before turning the bus around for reads
system.mem_ctrls.wrPerTurnAround::17               86      1.15%     90.21% # Writes before turning the bus around for reads
system.mem_ctrls.wrPerTurnAround::18              468      6.26%     96.47% # Writes before turning the bus around for reads
system.mem_ctrls.wrPerTurnAround::19              200      2.68%     99.14% # Writes before turning the bus around for reads
system.mem_ctrls.wrPerTurnAround::20               59      0.79%     99.93% # Writes before turning the bus around for reads
system.mem_ctrls.wrPerTurnAround::21                3      0.04%     99.97% # Writes before turning the bus around for reads
system.mem_ctrls.wrPerTurnAround::22                2      0.03%    100.00% # Writes before turning the bus around for reads
system.mem_ctrls.wrPerTurnAround::total          7474                       # Writes before turning the bus around for reads
system.mem_ctrls.bytesReadDRAM                9553472                       # Total number of bytes read from DRAM
system.mem_ctrls.bytesReadWrQ                  665728                       # Total number of bytes read from write queue
system.mem_ctrls.bytesWritten                 7774016                       # Total number of bytes written to DRAM
system.mem_ctrls.bytesReadSys                10219200                       # Total read bytes from the system interface side
system.mem_ctrls.bytesWrittenSys              7905600                       # Total written bytes from the system interface side
system.mem_ctrls.avgRdBW                       784.46                       # Average DRAM read bandwidth in MiByte/s
system.mem_ctrls.avgWrBW                       638.34                       # Average achieved write bandwidth in MiByte/s
system.mem_ctrls.avgRdBWSys                    839.12                       # Average system read bandwidth in MiByte/s
system.mem_ctrls.avgWrBWSys                    649.15                       # Average system write bandwidth in MiByte/s
system.mem_ctrls.peakBW                      12800.00                       # Theoretical peak bandwidth in MiByte/s
system.mem_ctrls.busUtil                        11.12                       # Data bus utilization in percentage
system.mem_ctrls.busUtilRead                     6.13                       # Data bus utilization in percentage for reads
system.mem_ctrls.busUtilWrite                    4.99                       # Data bus utilization in percentage for writes
system.mem_ctrls.totGap                   12178441500                       # Total gap between requests
system.mem_ctrls.avgGap                      43002.97                       # Average gap between requests
system.mem_ctrls.masterReadBytes::.cpu.inst      5086080                       # Per-master bytes read from memory
system.mem_ctrls.masterReadBytes::.cpu.data      4467392                       # Per-master bytes read from memory
system.mem_ctrls.masterWriteBytes::.writebacks      7774016                       # Per-master bytes write to memory
[...]
system.cpu.icache.ReadReq_mshr_miss_latency::total  13647531000                       # number of ReadReq MSHR miss cycles
system.cpu.icache.ReadReq_mshr_miss_rate::.cpu.inst     0.003239                       # mshr miss rate for ReadReq accesses
system.cpu.icache.ReadReq_mshr_miss_rate::total     0.003239                       # mshr miss rate for ReadReq accesses
system.cpu.icache.ReadReq_avg_mshr_miss_latency::.cpu.inst 23893.196473                       # average ReadReq mshr miss latency
system.cpu.icache.ReadReq_avg_mshr_miss_latency::total 23893.196473                       # average ReadReq mshr miss latency
system.cpu.icache.tags.pwrStateResidencyTicks::UNDEFINED 398216830500                       # Cumulative time (in ticks) in various power states
system.cpu.icache.tags.tagsinuse                  512                       # Cycle average of tags in use
system.cpu.icache.tags.total_refs           176350592                       # Total number of references to valid blocks.
system.cpu.icache.tags.sampled_refs            571702                       # Sample count of references to valid blocks.
system.cpu.icache.tags.avg_refs            308.465935                       # Average number of references to valid blocks.
system.cpu.icache.tags.warmup_cycle                 0                       # Cycle when the warmup percentage was hit.
system.cpu.icache.tags.occ_blocks::.cpu.inst          512                       # Average occupied blocks per requestor
system.cpu.icache.tags.occ_percent::.cpu.inst            1                       # Average percentage of cache occupancy
system.cpu.icache.tags.occ_percent::total            1                       # Average percentage of cache occupancy
system.cpu.icache.tags.occ_task_id_blocks::1024          512                       # Occupied blocks per task id
system.cpu.icache.tags.age_task_id_blocks_1024::0            2                       # Occupied blocks per task id
system.cpu.icache.tags.age_task_id_blocks_1024::2           56                       # Occupied blocks per task id
system.cpu.icache.tags.age_task_id_blocks_1024::3           15                       # Occupied blocks per task id
system.cpu.icache.tags.age_task_id_blocks_1024::4          439                       # Occupied blocks per task id
system.cpu.icache.tags.occ_task_id_percent::1024            1                       # Percentage of cache occupancy per task id
system.cpu.icache.tags.tag_accesses         353239632                       # Number of tag accesses
system.cpu.icache.tags.data_accesses        353239632                       # Number of data accesses
system.cpu.dcache.pwrStateResidencyTicks::UNDEFINED 398216830500                       # Cumulative time (in ticks) in various power states
system.cpu.dcache.demand_hits::.cpu.data    121695949                       # number of demand (read+write) hits
system.cpu.dcache.demand_hits::total        121695949                       # number of demand (read+write) hits
system.cpu.dcache.overall_hits::.cpu.data    121695949                       # number of overall hits
system.cpu.dcache.overall_hits::total       121695949                       # number of overall hits
system.cpu.dcache.demand_misses::.cpu.data       127164                       # number of demand (read+write) misses
system.cpu.dcache.demand_misses::total         127164                       # number of demand (read+write) misses
system.cpu.dcache.overall_misses::.cpu.data       127164                       # number of overall misses
system.cpu.dcache.overall_misses::total        127164                       # number of overall misses
system.cpu.dcache.demand_miss_latency::.cpu.data   8301284000                       # number of demand (read+write) miss cycles
system.cpu.dcache.demand_miss_latency::total   8301284000                       # number of demand (read+write) miss cycles
system.cpu.dcache.overall_miss_latency::.cpu.data   8301284000                       # number of overall miss cycles
system.cpu.dcache.overall_miss_latency::total   8301284000                       # number of overall miss cycles
system.cpu.dcache.demand_accesses::.cpu.data    121823113                       # number of demand (read+write) accesses
system.cpu.dcache.demand_accesses::total    121823113                       # number of demand (read+write) accesses
system.cpu.dcache.overall_accesses::.cpu.data    121823113                       # number of overall (read+write) accesses
system.cpu.dcache.overall_accesses::total    121823113                       # number of overall (read+write) accesses
system.cpu.dcache.demand_miss_rate::.cpu.data     0.001044                       # miss rate for demand accesses
system.cpu.dcache.demand_miss_rate::total     0.001044                       # miss rate for demand accesses
system.cpu.dcache.overall_miss_rate::.cpu.data     0.001044                       # miss rate for overall accesses
system.cpu.dcache.overall_miss_rate::total     0.001044                       # miss rate for overall accesses
system.cpu.dcache.demand_avg_miss_latency::.cpu.data 65280.142179                       # average overall miss latency
system.cpu.dcache.demand_avg_miss_latency::total 65280.142179                       # average overall miss latency
system.cpu.dcache.overall_avg_miss_latency::.cpu.data 65280.142179                       # average overall miss latency
system.cpu.dcache.overall_avg_miss_latency::total 65280.142179                       # average overall miss latency
system.cpu.dcache.blocked_cycles::no_mshrs            0                       # number of cycles access was blocked
system.cpu.dcache.blocked_cycles::no_targets            0                       # number of cycles access was blocked
system.cpu.dcache.blocked::no_mshrs                 0                       # number of cycles access was blocked
system.cpu.dcache.blocked::no_targets               0                       # number of cycles access was blocked
system.cpu.dcache.avg_blocked_cycles::no_mshrs          nan                       # average number of cycles each access was blocked
system.cpu.dcache.avg_blocked_cycles::no_targets          nan                       # average number of cycles each access was blocked
system.cpu.dcache.writebacks::.writebacks        18787                       # number of writebacks
system.cpu.dcache.writebacks::total             18787                       # number of writebacks
system.cpu.dcache.demand_mshr_hits::.cpu.data         4526                       # number of demand (read+write) MSHR hits
system.cpu.dcache.demand_mshr_hits::total         4526                       # number of demand (read+write) MSHR hits
system.cpu.dcache.overall_mshr_hits::.cpu.data         4526                       # number of overall MSHR hits
system.cpu.dcache.overall_mshr_hits::total         4526                       # number of overall MSHR hits
system.cpu.dcache.demand_mshr_misses::.cpu.data       122638                       # number of demand (read+write) MSHR misses
system.cpu.dcache.demand_mshr_misses::total       122638                       # number of demand (read+write) MSHR misses
system.cpu.dcache.overall_mshr_misses::.cpu.data       122638                       # number of overall MSHR misses
system.cpu.dcache.overall_mshr_misses::total       122638                       # number of overall MSHR misses
system.cpu.dcache.overall_mshr_uncacheable_misses::.cpu.data          407                       # number of overall MSHR uncacheable misses
system.cpu.dcache.overall_mshr_uncacheable_misses::total          407                       # number of overall MSHR uncacheable misses
system.cpu.dcache.demand_mshr_miss_latency::.cpu.data   8035317000                       # number of demand (read+write) MSHR miss cycles
system.cpu.dcache.demand_mshr_miss_latency::total   8035317000                       # number of demand (read+write) MSHR miss cycles
system.cpu.dcache.overall_mshr_miss_latency::.cpu.data   8035317000                       # number of overall MSHR miss cycles
system.cpu.dcache.overall_mshr_miss_latency::total   8035317000                       # number of overall MSHR miss cycles
system.cpu.dcache.demand_mshr_miss_rate::.cpu.data     0.001007                       # mshr miss rate for demand accesses
system.cpu.dcache.demand_mshr_miss_rate::total     0.001007                       # mshr miss rate for demand accesses
system.cpu.dcache.overall_mshr_miss_rate::.cpu.data     0.001007                       # mshr miss rate for overall accesses
system.cpu.dcache.overall_mshr_miss_rate::total     0.001007                       # mshr miss rate for overall accesses
system.cpu.dcache.demand_avg_mshr_miss_latency::.cpu.data 65520.613513                       # average overall mshr miss latency
system.cpu.dcache.demand_avg_mshr_miss_latency::total 65520.613513                       # average overall mshr miss latency
system.cpu.dcache.overall_avg_mshr_miss_latency::.cpu.data 65520.613513                       # average overall mshr miss latency
system.cpu.dcache.overall_avg_mshr_miss_latency::total 65520.613513                       # average overall mshr miss latency
system.cpu.dcache.replacements                 122820                       # number of replacements
system.cpu.dcache.ReadReq_hits::.cpu.data     73231323                       # number of ReadReq hits
system.cpu.dcache.ReadReq_hits::total        73231323                       # number of ReadReq hits
system.cpu.dcache.ReadReq_misses::.cpu.data       106181                       # number of ReadReq misses
system.cpu.dcache.ReadReq_misses::total        106181                       # number of ReadReq misses
system.cpu.dcache.ReadReq_miss_latency::.cpu.data   7217841500                       # number of ReadReq miss cycles
system.cpu.dcache.ReadReq_miss_latency::total   7217841500                       # number of ReadReq miss cycles
system.cpu.dcache.ReadReq_accesses::.cpu.data     73337504                       # number of ReadReq accesses(hits+misses)
system.cpu.dcache.ReadReq_accesses::total     73337504                       # number of ReadReq accesses(hits+misses)
system.cpu.dcache.ReadReq_miss_rate::.cpu.data     0.001448                       # miss rate for ReadReq accesses
system.cpu.dcache.ReadReq_miss_rate::total     0.001448                       # miss rate for ReadReq accesses
system.cpu.dcache.ReadReq_avg_miss_latency::.cpu.data 67976.770797                       # average ReadReq miss latency
system.cpu.dcache.ReadReq_avg_miss_latency::total 67976.770797                       # average ReadReq miss latency
system.cpu.dcache.ReadReq_mshr_hits::.cpu.data           43                       # number of ReadReq MSHR hits
system.cpu.dcache.ReadReq_mshr_hits::total           43                       # number of ReadReq MSHR hits
system.cpu.dcache.ReadReq_mshr_misses::.cpu.data       106138                       # number of ReadReq MSHR misses
system.cpu.dcache.ReadReq_mshr_misses::total       106138                       # number of ReadReq MSHR misses
system.cpu.dcache.ReadReq_mshr_miss_latency::.cpu.data   7108267000                       # number of ReadReq MSHR miss cycles
system.cpu.dcache.ReadReq_mshr_miss_latency::total   7108267000                       # number of ReadReq MSHR miss cycles
system.cpu.dcache.ReadReq_mshr_miss_rate::.cpu.data     0.001447                       # mshr miss rate for ReadReq accesses
system.cpu.dcache.ReadReq_mshr_miss_rate::total     0.001447                       # mshr miss rate for ReadReq accesses
system.cpu.dcache.ReadReq_avg_mshr_miss_latency::.cpu.data 66971.932767                       # average ReadReq mshr miss latency
system.cpu.dcache.ReadReq_avg_mshr_miss_latency::total 66971.932767                       # average ReadReq mshr miss latency
system.cpu.dcache.WriteReq_hits::.cpu.data     48464626                       # number of WriteReq hits
system.cpu.dcache.WriteReq_hits::total       48464626                       # number of WriteReq hits
system.cpu.dcache.WriteReq_misses::.cpu.data        20983                       # number of WriteReq misses
system.cpu.dcache.WriteReq_misses::total        20983                       # number of WriteReq misses
system.cpu.dcache.WriteReq_miss_latency::.cpu.data   1083442500                       # number of WriteReq miss cycles
system.cpu.dcache.WriteReq_miss_latency::total   1083442500                       # number of WriteReq miss cycles
system.cpu.dcache.WriteReq_accesses::.cpu.data     48485609                       # number of WriteReq accesses(hits+misses)
system.cpu.dcache.WriteReq_accesses::total     48485609                       # number of WriteReq accesses(hits+misses)
system.cpu.dcache.WriteReq_miss_rate::.cpu.data     0.000433                       # miss rate for WriteReq accesses
system.cpu.dcache.WriteReq_miss_rate::total     0.000433                       # miss rate for WriteReq accesses
system.cpu.dcache.WriteReq_avg_miss_latency::.cpu.data 51634.299195                       # average WriteReq miss latency
system.cpu.dcache.WriteReq_avg_miss_latency::total 51634.299195                       # average WriteReq miss latency
system.cpu.dcache.WriteReq_mshr_hits::.cpu.data         4483                       # number of WriteReq MSHR hits
system.cpu.dcache.WriteReq_mshr_hits::total         4483                       # number of WriteReq MSHR hits
system.cpu.dcache.WriteReq_mshr_misses::.cpu.data        16500                       # number of WriteReq MSHR misses
system.cpu.dcache.WriteReq_mshr_misses::total        16500                       # number of WriteReq MSHR misses
system.cpu.dcache.WriteReq_mshr_uncacheable::.cpu.data          407                       # number of WriteReq MSHR uncacheable
system.cpu.dcache.WriteReq_mshr_uncacheable::total          407                       # number of WriteReq MSHR uncacheable
system.cpu.dcache.WriteReq_mshr_miss_latency::.cpu.data    927050000                       # number of WriteReq MSHR miss cycles
system.cpu.dcache.WriteReq_mshr_miss_latency::total    927050000                       # number of WriteReq MSHR miss cycles
system.cpu.dcache.WriteReq_mshr_miss_rate::.cpu.data     0.000340                       # mshr miss rate for WriteReq accesses
system.cpu.dcache.WriteReq_mshr_miss_rate::total     0.000340                       # mshr miss rate for WriteReq accesses
system.cpu.dcache.WriteReq_avg_mshr_miss_latency::.cpu.data 56184.848485                       # average WriteReq mshr miss latency
system.cpu.dcache.WriteReq_avg_mshr_miss_latency::total 56184.848485                       # average WriteReq mshr miss latency
system.cpu.dcache.LoadLockedReq_hits::.cpu.data         2412                       # number of LoadLockedReq hits
system.cpu.dcache.LoadLockedReq_hits::total         2412                       # number of LoadLockedReq hits
system.cpu.dcache.LoadLockedReq_misses::.cpu.data          182                       # number of LoadLockedReq misses
system.cpu.dcache.LoadLockedReq_misses::total          182                       # number of LoadLockedReq misses
system.cpu.dcache.LoadLockedReq_miss_latency::.cpu.data     14908000                       # number of LoadLockedReq miss cycles
system.cpu.dcache.LoadLockedReq_miss_latency::total     14908000                       # number of LoadLockedReq miss cycles
system.cpu.dcache.LoadLockedReq_accesses::.cpu.data         2594                       # number of LoadLockedReq accesses(hits+misses)
system.cpu.dcache.LoadLockedReq_accesses::total         2594                       # number of LoadLockedReq accesses(hits+misses)
system.cpu.dcache.LoadLockedReq_miss_rate::.cpu.data     0.070162                       # miss rate for LoadLockedReq accesses
system.cpu.dcache.LoadLockedReq_miss_rate::total     0.070162                       # miss rate for LoadLockedReq accesses
system.cpu.dcache.LoadLockedReq_avg_miss_latency::.cpu.data 81912.087912                       # average LoadLockedReq miss latency
system.cpu.dcache.LoadLockedReq_avg_miss_latency::total 81912.087912                       # average LoadLockedReq miss latency
system.cpu.dcache.LoadLockedReq_mshr_misses::.cpu.data          182                       # number of LoadLockedReq MSHR misses
system.cpu.dcache.LoadLockedReq_mshr_misses::total          182                       # number of LoadLockedReq MSHR misses
system.cpu.dcache.LoadLockedReq_mshr_miss_latency::.cpu.data     14726000                       # number of LoadLockedReq MSHR miss cycles
system.cpu.dcache.LoadLockedReq_mshr_miss_latency::total     14726000                       # number of LoadLockedReq MSHR miss cycles
system.cpu.dcache.LoadLockedReq_mshr_miss_rate::.cpu.data     0.070162                       # mshr miss rate for LoadLockedReq accesses
system.cpu.dcache.LoadLockedReq_mshr_miss_rate::total     0.070162                       # mshr miss rate for LoadLockedReq accesses
system.cpu.dcache.LoadLockedReq_avg_mshr_miss_latency::.cpu.data 80912.087912                       # average LoadLockedReq mshr miss latency
system.cpu.dcache.LoadLockedReq_avg_mshr_miss_latency::total 80912.087912                       # average LoadLockedReq mshr miss latency
system.cpu.dcache.StoreCondReq_hits::.cpu.data         2594                       # number of StoreCondReq hits
system.cpu.dcache.StoreCondReq_hits::total         2594                       # number of StoreCondReq hits
system.cpu.dcache.StoreCondReq_accesses::.cpu.data         2594                       # number of StoreCondReq accesses(hits+misses)
system.cpu.dcache.StoreCondReq_accesses::total         2594                       # number of StoreCondReq accesses(hits+misses)
system.cpu.dcache.tags.pwrStateResidencyTicks::UNDEFINED 398216830500                       # Cumulative time (in ticks) in various power states
system.cpu.dcache.tags.tagsinuse                 1024                       # Cycle average of tags in use
system.cpu.dcache.tags.total_refs           121865338                       # Total number of references to valid blocks.
system.cpu.dcache.tags.sampled_refs            123844                       # Sample count of references to valid blocks.
system.cpu.dcache.tags.avg_refs            984.022948                       # Average number of references to valid blocks.
system.cpu.dcache.tags.warmup_cycle                 0                       # Cycle when the warmup percentage was hit.
system.cpu.dcache.tags.occ_blocks::.cpu.data         1024                       # Average occupied blocks per requestor
system.cpu.dcache.tags.occ_percent::.cpu.data            1                       # Average percentage of cache occupancy
system.cpu.dcache.tags.occ_percent::total            1                       # Average percentage of cache occupancy
system.cpu.dcache.tags.occ_task_id_blocks::1024         1024                       # Occupied blocks per task id
system.cpu.dcache.tags.age_task_id_blocks_1024::0            6                       # Occupied blocks per task id
system.cpu.dcache.tags.age_task_id_blocks_1024::1           15                       # Occupied blocks per task id
system.cpu.dcache.tags.age_task_id_blocks_1024::2          170                       # Occupied blocks per task id
system.cpu.dcache.tags.age_task_id_blocks_1024::3          636                       # Occupied blocks per task id
system.cpu.dcache.tags.age_task_id_blocks_1024::4          197                       # Occupied blocks per task id
system.cpu.dcache.tags.occ_task_id_percent::1024            1                       # Percentage of cache occupancy per task id
system.cpu.dcache.tags.tag_accesses         243779422                       # Number of tag accesses
system.cpu.dcache.tags.data_accesses        243779422                       # Number of data accesses

---------- End Simulation Statistics   ----------
