
---------- Begin Simulation Statistics ----------
final_tick                               2541822037500                       # Number of ticks from beginning of simulation (restored from checkpoints and never reset)
host_inst_rate                                 202950                       # Simulator instruction rate (inst/s)
host_mem_usage                                 744064                       # Number of bytes of host memory used
host_op_rate                                   202948                       # Simulator op (including micro ops) rate (op/s)
host_seconds                                    20.67                       # Real time elapsed on the host
host_tick_rate                              571557797                       # Simulator tick rate (ticks/s)
sim_freq                                 1000000000000                       # Frequency of simulated ticks
sim_insts                                     4194258                       # Number of instructions simulated
sim_ops                                       4194258                       # Number of ops (including micro ops) simulated
sim_seconds                                  0.011812                       # Number of seconds simulated
sim_ticks                                 11812192500                       # Number of ticks simulated
system.cpu.branchPred.BTBCorrect                    0                       # Number of correct BTB predictions (this stat may not work properly.
system.cpu.branchPred.BTBHitPct             44.698317                       # BTB Hit Percentage
system.cpu.branchPred.BTBHits                  377564                       # Number of BTB hits
system.cpu.branchPred.BTBLookups               844694                       # Number of BTB lookups
system.cpu.branchPred.RASInCorrect               2417                       # Number of incorrect RAS predictions.
system.cpu.branchPred.condIncorrect             74281                       # Number of conditional branches incorrect
system.cpu.branchPred.condPredicted            800602                       # Number of conditional branches predicted
system.cpu.branchPred.indirectHits              53277                       # Number of indirect target hits.
system.cpu.branchPred.indirectLookups          277189                       # Number of indirect predictor lookups.
system.cpu.branchPred.indirectMisses           223912                       # Number of indirect misses.
system.cpu.branchPred.lookups                  972019                       # Number of BP lookups
system.cpu.branchPred.usedRAS                   63782                       # Number of times the RAS was used to get a target.
system.cpu.branchPredindirectMispredicted        26580                       # Number of mispredicted indirect branches.
system.cpu.committedInsts                     4194258                       # Number of instructions committed
system.cpu.committedOps                       4194258                       # Number of ops (including micro ops) committed
system.cpu.cpi                               5.629448                       # CPI: cycles per instruction
system.cpu.discardedOps                        187548                       # Number of ops (including micro ops) which were discarded before commit
system.cpu.dtb.data_accesses                   606775                       # DTB accesses
system.cpu.dtb.data_acv                           131                       # DTB access violations
system.cpu.dtb.data_hits                      1450694                       # DTB hits
system.cpu.dtb.data_misses                       7702                       # DTB misses
system.cpu.dtb.fetch_accesses                       0                       # ITB accesses
system.cpu.dtb.fetch_acv                            0                       # ITB acv
system.cpu.dtb.fetch_hits                           0                       # ITB hits
system.cpu.dtb.fetch_misses                         0                       # ITB misses
system.cpu.dtb.read_accesses                   405269                       # DTB read accesses
system.cpu.dtb.read_acv                            43                       # DTB read access violations
system.cpu.dtb.read_hits                       848175                       # DTB read hits
system.cpu.dtb.read_misses                       6909                       # DTB read misses
system.cpu.dtb.write_accesses                  201506                       # DTB write accesses
system.cpu.dtb.write_acv                           88                       # DTB write access violations
system.cpu.dtb.write_hits                      602519                       # DTB write hits
system.cpu.dtb.write_misses                       793                       # DTB write misses
system.cpu.fetch2.amo_instructions                  0                       # Number of memory atomic instructions successfully decoded
system.cpu.fetch2.fp_instructions               18032                       # Number of floating point instructions successfully decoded
system.cpu.fetch2.int_instructions            3369265                       # Number of integer instructions successfully decoded
system.cpu.fetch2.load_instructions           1025197                       # Number of memory load instructions successfully decoded
system.cpu.fetch2.store_instructions           657952                       # Number of memory store instructions successfully decoded
system.cpu.fetch2.vec_instructions                  0                       # Number of SIMD instructions successfully decoded
system.cpu.idleCycles                        16726136                       # Total number of cycles that the object has spent stopped
system.cpu.ipc                               0.177637                       # IPC: instructions per cycle
system.cpu.itb.data_accesses                        0                       # DTB accesses
system.cpu.itb.data_acv                             0                       # DTB access violations
system.cpu.itb.data_hits                            0                       # DTB hits
system.cpu.itb.data_misses                          0                       # DTB misses
system.cpu.itb.fetch_accesses                  953410                       # ITB accesses
system.cpu.itb.fetch_acv                          571                       # ITB acv
system.cpu.itb.fetch_hits                      946318                       # ITB hits
system.cpu.itb.fetch_misses                      7092                       # ITB misses
system.cpu.itb.read_accesses                        0                       # DTB read accesses
system.cpu.itb.read_acv                             0                       # DTB read access violations
system.cpu.itb.read_hits                            0                       # DTB read hits
system.cpu.itb.read_misses                          0                       # DTB read misses
system.cpu.itb.write_accesses                       0                       # DTB write accesses
system.cpu.itb.write_acv                            0                       # DTB write access violations
system.cpu.itb.write_hits                           0                       # DTB write hits
system.cpu.itb.write_misses                         0                       # DTB write misses
system.cpu.kern.callpal::swpctx                   574      9.50%      9.50% # number of callpals executed
system.cpu.kern.callpal::tbi                       25      0.41%      9.92% # number of callpals executed
system.cpu.kern.callpal::swpipl                  4178     69.16%     79.08% # number of callpals executed
system.cpu.kern.callpal::rdps                      48      0.79%     79.87% # number of callpals executed
system.cpu.kern.callpal::wrusp                      4      0.07%     79.94% # number of callpals executed
system.cpu.kern.callpal::rdusp                      3      0.05%     79.99% # number of callpals executed
system.cpu.kern.callpal::rti                      896     14.83%     94.82% # number of callpals executed
system.cpu.kern.callpal::callsys                  235      3.89%     98.71% # number of callpals executed
system.cpu.kern.callpal::imb                       78      1.29%    100.00% # number of callpals executed
system.cpu.kern.callpal::total                   6041                       # number of callpals executed
system.cpu.kern.inst.arm                            0                       # number of arm instructions executed
system.cpu.kern.inst.hwrei                      14384                       # number of hwrei instructions executed
system.cpu.kern.inst.quiesce                        9                       # number of quiesce instructions executed
system.cpu.kern.ipl_count::0                     2414     47.42%     47.42% # number of times we switched to this ipl
system.cpu.kern.ipl_count::21                       5      0.10%     47.52% # number of times we switched to this ipl
system.cpu.kern.ipl_count::22                      12      0.24%     47.75% # number of times we switched to this ipl
system.cpu.kern.ipl_count::31                    2660     52.25%    100.00% # number of times we switched to this ipl
system.cpu.kern.ipl_count::total                 5091                       # number of times we switched to this ipl
system.cpu.kern.ipl_good::0                      2401     49.82%     49.82% # number of times we switched to this ipl from a different ipl
system.cpu.kern.ipl_good::21                        5      0.10%     49.93% # number of times we switched to this ipl from a different ipl
system.cpu.kern.ipl_good::22                       12      0.25%     50.18% # number of times we switched to this ipl from a different ipl
system.cpu.kern.ipl_good::31                     2401     49.82%    100.00% # number of times we switched to this ipl from a different ipl
system.cpu.kern.ipl_good::total                  4819                       # number of times we switched to this ipl from a different ipl
system.cpu.kern.ipl_ticks::0              10908325500     92.32%     92.32% # number of cycles we spent at this ipl
system.cpu.kern.ipl_ticks::21                 9244500      0.08%     92.39% # number of cycles we spent at this ipl
system.cpu.kern.ipl_ticks::22                17882000      0.15%     92.55% # number of cycles we spent at this ipl
system.cpu.kern.ipl_ticks::31               880819000      7.45%    100.00% # number of cycles we spent at this ipl
system.cpu.kern.ipl_ticks::total          11816271000                       # number of cycles we spent at this ipl
system.cpu.kern.ipl_used::0                  0.994615                       # fraction of swpipl calls that actually changed the ipl
system.cpu.kern.ipl_used::21                        1                       # fraction of swpipl calls that actually changed the ipl
system.cpu.kern.ipl_used::22                        1                       # fraction of swpipl calls that actually changed the ipl
system.cpu.kern.ipl_used::31                 0.902632                       # fraction of swpipl calls that actually changed the ipl
system.cpu.kern.ipl_used::total              0.946572                       # fraction of swpipl calls that actually changed the ipl
system.cpu.kern.mode_good::kernel                 869                      
system.cpu.kern.mode_good::user                   869                      
system.cpu.kern.mode_good::idle                     0                      
system.cpu.kern.mode_switch::kernel              1470                       # number of protection mode switches
system.cpu.kern.mode_switch::user                 869                       # number of protection mode switches
system.cpu.kern.mode_switch::idle                   0                       # number of protection mode switches
system.cpu.kern.mode_switch_good::kernel     0.591156                       # fraction of useful protection mode switches
system.cpu.kern.mode_switch_good::user              1                       # fraction of useful protection mode switches
system.cpu.kern.mode_switch_good::idle            nan                       # fraction of useful protection mode switches
system.cpu.kern.mode_switch_good::total      0.743053                       # fraction of useful protection mode switches
system.cpu.kern.mode_ticks::kernel         7980836500     67.54%     67.54% # number of ticks spent at the given mode
system.cpu.kern.mode_ticks::user           3835434500     32.46%    100.00% # number of ticks spent at the given mode
system.cpu.kern.mode_ticks::idle                    0      0.00%    100.00% # number of ticks spent at the given mode
system.cpu.kern.swap_context                      574                       # number of times the context was actually changed
system.cpu.numCycles                         23611359                       # number of cpu cycles simulated
system.cpu.numFetchSuspends                         9                       # Number of times Execute suspended instruction fetching
system.cpu.numWorkItemsCompleted                    0                       # number of work items this cpu completed
system.cpu.numWorkItemsStarted                      0                       # number of work items this cpu started
system.cpu.op_class_0::No_OpClass               85412      2.04%      2.04% # Class of committed instruction
system.cpu.op_class_0::IntAlu                 2540442     60.57%     62.61% # Class of committed instruction
system.cpu.op_class_0::IntMult                   3673      0.09%     62.69% # Class of committed instruction
system.cpu.op_class_0::IntDiv                       0      0.00%     62.69% # Class of committed instruction
system.cpu.op_class_0::FloatAdd                  8286      0.20%     62.89% # Class of committed instruction
system.cpu.op_class_0::FloatCmp                     0      0.00%     62.89% # Class of committed instruction
system.cpu.op_class_0::FloatCvt                     0      0.00%     62.89% # Class of committed instruction
system.cpu.op_class_0::FloatMult                    0      0.00%     62.89% # Class of committed instruction
system.cpu.op_class_0::FloatMultAcc                 0      0.00%     62.89% # Class of committed instruction
system.cpu.op_class_0::FloatDiv                  1593      0.04%     62.93% # Class of committed instruction
system.cpu.op_class_0::FloatMisc                    0      0.00%     62.93% # Class of committed instruction
system.cpu.op_class_0::FloatSqrt                    0      0.00%     62.93% # Class of committed instruction
system.cpu.op_class_0::SimdAdd                      0      0.00%     62.93% # Class of committed instruction
system.cpu.op_class_0::SimdAddAcc                   0      0.00%     62.93% # Class of committed instruction
system.cpu.op_class_0::SimdAlu                      0      0.00%     62.93% # Class of committed instruction
system.cpu.op_class_0::SimdCmp                      0      0.00%     62.93% # Class of committed instruction
system.cpu.op_class_0::SimdCvt                      0      0.00%     62.93% # Class of committed instruction
system.cpu.op_class_0::SimdMisc                     0      0.00%     62.93% # Class of committed instruction
system.cpu.op_class_0::SimdMult                     0      0.00%     62.93% # Class of committed instruction
system.cpu.op_class_0::SimdMultAcc                  0      0.00%     62.93% # Class of committed instruction
system.cpu.op_class_0::SimdShift                    0      0.00%     62.93% # Class of committed instruction
system.cpu.op_class_0::SimdShiftAcc                 0      0.00%     62.93% # Class of committed instruction
system.cpu.op_class_0::SimdDiv                      0      0.00%     62.93% # Class of committed instruction
system.cpu.op_class_0::SimdSqrt                     0      0.00%     62.93% # Class of committed instruction
system.cpu.op_class_0::SimdFloatAdd                 0      0.00%     62.93% # Class of committed instruction
system.cpu.op_class_0::SimdFloatAlu                 0      0.00%     62.93% # Class of committed instruction
system.cpu.op_class_0::SimdFloatCmp                 0      0.00%     62.93% # Class of committed instruction
system.cpu.op_class_0::SimdFloatCvt                 0      0.00%     62.93% # Class of committed instruction
system.cpu.op_class_0::SimdFloatDiv                 0      0.00%     62.93% # Class of committed instruction
system.cpu.op_class_0::SimdFloatMisc                0      0.00%     62.93% # Class of committed instruction
system.cpu.op_class_0::SimdFloatMult                0      0.00%     62.93% # Class of committed instruction
system.cpu.op_class_0::SimdFloatMultAcc             0      0.00%     62.93% # Class of committed instruction
system.cpu.op_class_0::SimdFloatSqrt                0      0.00%     62.93% # Class of committed instruction
system.cpu.op_class_0::SimdReduceAdd                0      0.00%     62.93% # Class of committed instruction
system.cpu.op_class_0::SimdReduceAlu                0      0.00%     62.93% # Class of committed instruction
system.cpu.op_class_0::SimdReduceCmp                0      0.00%     62.93% # Class of committed instruction
system.cpu.op_class_0::SimdFloatReduceAdd            0      0.00%     62.93% # Class of committed instruction
system.cpu.op_class_0::SimdFloatReduceCmp            0      0.00%     62.93% # Class of committed instruction
system.cpu.op_class_0::SimdAes                      0      0.00%     62.93% # Class of committed instruction
system.cpu.op_class_0::SimdAesMix                   0      0.00%     62.93% # Class of committed instruction
system.cpu.op_class_0::SimdSha1Hash                 0      0.00%     62.93% # Class of committed instruction
system.cpu.op_class_0::SimdSha1Hash2                0      0.00%     62.93% # Class of committed instruction
system.cpu.op_class_0::SimdSha256Hash               0      0.00%     62.93% # Class of committed instruction
system.cpu.op_class_0::SimdSha256Hash2              0      0.00%     62.93% # Class of committed instruction
system.cpu.op_class_0::SimdShaSigma2                0      0.00%     62.93% # Class of committed instruction
system.cpu.op_class_0::SimdShaSigma3                0      0.00%     62.93% # Class of committed instruction
system.cpu.op_class_0::SimdPredAlu                  0      0.00%     62.93% # Class of committed instruction
system.cpu.op_class_0::MemRead                 838974     20.00%     82.93% # Class of committed instruction
system.cpu.op_class_0::MemWrite                592419     14.12%     97.06% # Class of committed instruction
system.cpu.op_class_0::FloatMemRead              9988      0.24%     97.29% # Class of committed instruction
system.cpu.op_class_0::FloatMemWrite             8788      0.21%     97.50% # Class of committed instruction
system.cpu.op_class_0::IprAccess               104683      2.50%    100.00% # Class of committed instruction
system.cpu.op_class_0::InstPrefetch                 0      0.00%    100.00% # Class of committed instruction
system.cpu.op_class_0::total                  4194258                       # Class of committed instruction
system.cpu.quiesceCycles                        13026                       # Total number of cycles that CPU has spent quiesced or waiting for an interrupt
system.cpu.tickCycles                         6885223                       # Number of cycles that the object actually ticked
system.disk0.dma_read_bytes                         0                       # Number of bytes transfered via DMA reads (not PRD).
system.disk0.dma_read_full_pages                    0                       # Number of full page size DMA reads (not PRD).
system.disk0.dma_read_txs                           0                       # Number of DMA read transactions (not PRD).
system.disk0.dma_write_bytes                    12288                       # Number of bytes transfered via DMA writes.
system.disk0.dma_write_full_pages                   0                       # Number of full page size DMA writes.
system.disk0.dma_write_txs                          3                       # Number of DMA write transactions.
system.disk2.dma_read_bytes                         0                       # Number of bytes transfered via DMA reads (not PRD).
system.disk2.dma_read_full_pages                    0                       # Number of full page size DMA reads (not PRD).
system.disk2.dma_read_txs                           0                       # Number of DMA read transactions (not PRD).
system.disk2.dma_write_bytes                        0                       # Number of bytes transfered via DMA writes.
system.disk2.dma_write_full_pages                   0                       # Number of full page size DMA writes.
system.disk2.dma_write_txs                          0                       # Number of DMA write transactions.
system.membus.snoop_filter.hit_multi_requests          437                       # Number of requests hitting in the snoop filter with multiple (>1) holders of the requested data.
system.membus.snoop_filter.hit_multi_snoops            0                       # Number of snoops hitting in the snoop filter with multiple (>1) holders of the requested data.
system.membus.snoop_filter.hit_single_requests       155497                       # Number of requests hitting in the snoop filter with a single holder of the requested data.
system.membus.snoop_filter.hit_single_snoops            0                       # Number of snoops hitting in the snoop filter with a single holder of the requested data.
system.membus.snoop_filter.tot_requests        312599                       # Total number of requests made to the snoop filter.
system.membus.snoop_filter.tot_snoops               0                       # Total number of snoops made to the snoop filter.
system.tsunami.ethernet.coalescedRxDesc           nan                       # average number of RxDesc's coalesced into each post
system.tsunami.ethernet.coalescedRxIdle           nan                       # average number of RxIdle's coalesced into each post
system.tsunami.ethernet.coalescedRxOk             nan                       # average number of RxOk's coalesced into each post
system.tsunami.ethernet.coalescedRxOrn            nan                       # average number of RxOrn's coalesced into each post
system.tsunami.ethernet.coalescedSwi              nan                       # average number of Swi's coalesced into each post
system.tsunami.ethernet.coalescedTotal            nan                       # average number of interrupts coalesced into each post
system.tsunami.ethernet.coalescedTxDesc           nan                       # average number of TxDesc's coalesced into each post
system.tsunami.ethernet.coalescedTxIdle           nan                       # average number of TxIdle's coalesced into each post
system.tsunami.ethernet.coalescedTxOk             nan                       # average number of TxOk's coalesced into each post
system.tsunami.ethernet.descDMAReads                0                       # Number of descriptors the device read w/ DMA
system.tsunami.ethernet.descDMAWrites               0                       # Number of descriptors the device wrote w/ DMA
system.tsunami.ethernet.descDmaReadBytes            0                       # number of descriptor bytes read w/ DMA
system.tsunami.ethernet.descDmaWriteBytes            0                       # number of descriptor bytes write w/ DMA
system.tsunami.ethernet.droppedPackets              0                       # number of packets dropped
system.tsunami.ethernet.postedInterrupts            0                       # number of posts to CPU
system.tsunami.ethernet.postedRxDesc                0                       # number of RxDesc interrupts posted to CPU
system.tsunami.ethernet.postedRxIdle                0                       # number of rxIdle interrupts posted to CPU
system.tsunami.ethernet.postedRxOk                  0                       # number of RxOk interrupts posted to CPU
system.tsunami.ethernet.postedRxOrn                 0                       # number of RxOrn posted to CPU
system.tsunami.ethernet.postedSwi                   0                       # number of software interrupts posted to CPU
system.tsunami.ethernet.postedTxDesc                0                       # number of TxDesc interrupts posted to CPU
system.tsunami.ethernet.postedTxIdle                0                       # number of TxIdle interrupts posted to CPU
system.tsunami.ethernet.postedTxOk                  0                       # number of TxOk interrupts posted to CPU
system.tsunami.ethernet.totalRxDesc                 0                       # total number of RxDesc written to ISR
system.tsunami.ethernet.totalRxIdle                 0                       # total number of RxIdle written to ISR
system.tsunami.ethernet.totalRxOk                   0                       # total number of RxOk written to ISR
system.tsunami.ethernet.totalRxOrn                  0                       # total number of RxOrn written to ISR
system.tsunami.ethernet.totalSwi                    0                       # total number of Swi written to ISR
system.tsunami.ethernet.totalTxDesc                 0                       # total number of TxDesc written to ISR
system.tsunami.ethernet.totalTxIdle                 0                       # total number of TxIdle written to ISR
system.tsunami.ethernet.totalTxOk                   0                       # total number of TxOk written to ISR
system.bridge.pwrStateResidencyTicks::UNDEFINED 2541822037500                       # Cumulative time (in ticks) in various power states
system.voltage_domain.voltage                       1                       # Voltage in Volts
system.iocache.pwrStateResidencyTicks::UNDEFINED 2541822037500                       # Cumulative time (in ticks) in various power states
system.iocache.demand_misses::.tsunami.ide          195                       # number of demand (read+write) misses
system.iocache.demand_misses::total               195                       # number of demand (read+write) misses
system.iocache.overall_misses::.tsunami.ide          195                       # number of overall misses
system.iocache.overall_misses::total              195                       # number of overall misses
system.iocache.demand_miss_latency::.tsunami.ide     22783453                       # number of demand (read+write) miss cycles
system.iocache.demand_miss_latency::total     22783453                       # number of demand (read+write) miss cycles
system.iocache.overall_miss_latency::.tsunami.ide     22783453                       # number of overall miss cycles
system.iocache.overall_miss_latency::total     22783453                       # number of overall miss cycles
system.iocache.demand_accesses::.tsunami.ide          195                       # number of demand (read+write) accesses
system.iocache.demand_accesses::total             195                       # number of demand (read+write) accesses
system.iocache.overall_accesses::.tsunami.ide          195                       # number of overall (read+write) accesses
system.iocache.overall_accesses::total            195                       # number of overall (read+write) accesses
system.iocache.demand_miss_rate::.tsunami.ide            1                       # miss rate for demand accesses
system.iocache.demand_miss_rate::total              1                       # miss rate for demand accesses
system.iocache.overall_miss_rate::.tsunami.ide            1                       # miss rate for overall accesses
system.iocache.overall_miss_rate::total             1                       # miss rate for overall accesses
system.iocache.demand_avg_miss_latency::.tsunami.ide 116838.220513                       # average overall miss latency
system.iocache.demand_avg_miss_latency::total 116838.220513                       # average overall miss latency
system.iocache.overall_avg_miss_latency::.tsunami.ide 116838.220513                       # average overall miss latency
system.iocache.overall_avg_miss_latency::total 116838.220513                       # average overall miss latency
system.iocache.blocked_cycles::no_mshrs             0                       # number of cycles access was blocked
system.iocache.blocked_cycles::no_targets            0                       # number of cycles access was blocked
system.iocache.blocked::no_mshrs                    0                       # number of cycles access was blocked
system.iocache.blocked::no_targets                  0                       # number of cycles access was blocked
system.iocache.avg_blocked_cycles::no_mshrs          nan                       # average number of cycles each access was blocked
system.iocache.avg_blocked_cycles::no_targets          nan                       # average number of cycles each access was blocked
system.iocache.writebacks::.writebacks            176                       # number of writebacks
system.iocache.writebacks::total                  176                       # number of writebacks
system.iocache.demand_mshr_misses::.tsunami.ide          195                       # number of demand (read+write) MSHR misses
system.iocache.demand_mshr_misses::total          195                       # number of demand (read+write) MSHR misses
system.iocache.overall_mshr_misses::.tsunami.ide          195                       # number of overall MSHR misses
system.iocache.overall_mshr_misses::total          195                       # number of overall MSHR misses
system.iocache.demand_mshr_miss_latency::.tsunami.ide     13022478                       # number of demand (read+write) MSHR miss cycles
system.iocache.demand_mshr_miss_latency::total     13022478                       # number of demand (read+write) MSHR miss cycles
system.iocache.overall_mshr_miss_latency::.tsunami.ide     13022478                       # number of overall MSHR miss cycles
system.iocache.overall_mshr_miss_latency::total     13022478                       # number of overall MSHR miss cycles
system.iocache.demand_mshr_miss_rate::.tsunami.ide            1                       # mshr miss rate for demand accesses
system.iocache.demand_mshr_miss_rate::total            1                       # mshr miss rate for demand accesses
system.iocache.overall_mshr_miss_rate::.tsunami.ide            1                       # mshr miss rate for overall accesses
system.iocache.overall_mshr_miss_rate::total            1                       # mshr miss rate for overall accesses
system.iocache.demand_avg_mshr_miss_latency::.tsunami.ide 66781.938462                       # average overall mshr miss latency
system.iocache.demand_avg_mshr_miss_latency::total 66781.938462                       # average overall mshr miss latency
system.iocache.overall_avg_mshr_miss_latency::.tsunami.ide 66781.938462                       # average overall mshr miss latency
system.iocache.overall_avg_mshr_miss_latency::total 66781.938462                       # average overall mshr miss latency
system.iocache.replacements                       179                       # number of replacements
system.iocache.ReadReq_misses::.tsunami.ide            3                       # number of ReadReq misses
system.iocache.ReadReq_misses::total                3                       # number of ReadReq misses
system.iocache.ReadReq_miss_latency::.tsunami.ide       349497                       # number of ReadReq miss cycles
system.iocache.ReadReq_miss_latency::total       349497                       # number of ReadReq miss cycles
system.iocache.ReadReq_accesses::.tsunami.ide            3                       # number of ReadReq accesses(hits+misses)
system.iocache.ReadReq_accesses::total              3                       # number of ReadReq accesses(hits+misses)
system.iocache.ReadReq_miss_rate::.tsunami.ide            1                       # miss rate for ReadReq accesses
system.iocache.ReadReq_miss_rate::total             1                       # miss rate for ReadReq accesses
system.iocache.ReadReq_avg_miss_latency::.tsunami.ide       116499                       # average ReadReq miss latency
system.iocache.ReadReq_avg_miss_latency::total       116499                       # average ReadReq miss latency
system.iocache.ReadReq_mshr_misses::.tsunami.ide            3                       # number of ReadReq MSHR misses
system.iocache.ReadReq_mshr_misses::total            3                       # number of ReadReq MSHR misses
system.iocache.ReadReq_mshr_miss_latency::.tsunami.ide       199497                       # number of ReadReq MSHR miss cycles
system.iocache.ReadReq_mshr_miss_latency::total       199497                       # number of ReadReq MSHR miss cycles
system.iocache.ReadReq_mshr_miss_rate::.tsunami.ide            1                       # mshr miss rate for ReadReq accesses
system.iocache.ReadReq_mshr_miss_rate::total            1                       # mshr miss rate for ReadReq accesses
system.iocache.ReadReq_avg_mshr_miss_latency::.tsunami.ide        66499                       # average ReadReq mshr miss latency
system.iocache.ReadReq_avg_mshr_miss_latency::total        66499                       # average ReadReq mshr miss latency
system.iocache.WriteLineReq_misses::.tsunami.ide          192                       # number of WriteLineReq misses
system.iocache.WriteLineReq_misses::total          192                       # number of WriteLineReq misses
system.iocache.WriteLineReq_miss_latency::.tsunami.ide     22433956                       # number of WriteLineReq miss cycles
system.iocache.WriteLineReq_miss_latency::total     22433956                       # number of WriteLineReq miss cycles
system.iocache.WriteLineReq_accesses::.tsunami.ide          192                       # number of WriteLineReq accesses(hits+misses)
system.iocache.WriteLineReq_accesses::total          192                       # number of WriteLineReq accesses(hits+misses)
system.iocache.WriteLineReq_miss_rate::.tsunami.ide            1                       # miss rate for WriteLineReq accesses
system.iocache.WriteLineReq_miss_rate::total            1                       # miss rate for WriteLineReq accesses
system.iocache.WriteLineReq_avg_miss_latency::.tsunami.ide 116843.520833                       # average WriteLineReq miss latency
system.iocache.WriteLineReq_avg_miss_latency::total 116843.520833                       # average WriteLineReq miss latency
system.iocache.WriteLineReq_mshr_misses::.tsunami.ide          192                       # number of WriteLineReq MSHR misses
system.iocache.WriteLineReq_mshr_misses::total          192                       # number of WriteLineReq MSHR misses
system.iocache.WriteLineReq_mshr_miss_latency::.tsunami.ide     12822981                       # number of WriteLineReq MSHR miss cycles
system.iocache.WriteLineReq_mshr_miss_latency::total     12822981                       # number of WriteLineReq MSHR miss cycles
system.iocache.WriteLineReq_mshr_miss_rate::.tsunami.ide            1                       # mshr miss rate for WriteLineReq accesses
system.iocache.WriteLineReq_mshr_miss_rate::total            1                       # mshr miss rate for WriteLineReq accesses
system.iocache.WriteLineReq_avg_mshr_miss_latency::.tsunami.ide 66786.359375                       # average WriteLineReq mshr miss latency
system.iocache.WriteLineReq_avg_mshr_miss_latency::total 66786.359375                       # average WriteLineReq mshr miss latency
system.iocache.tags.pwrStateResidencyTicks::UNDEFINED 2541822037500                       # Cumulative time (in ticks) in various power states
system.iocache.tags.tagsinuse                3.282501                       # Cycle average of tags in use
system.iocache.tags.total_refs                    179                       # Total number of references to valid blocks.
system.iocache.tags.sampled_refs                  179                       # Sample count of references to valid blocks.
system.iocache.tags.avg_refs                        1                       # Average number of references to valid blocks.
system.iocache.tags.warmup_cycle         2539397614000                       # Cycle when the warmup percentage was hit.
system.iocache.tags.occ_blocks::.tsunami.ide     3.282501                       # Average occupied blocks per requestor
system.iocache.tags.occ_percent::.tsunami.ide     0.205156                       # Average percentage of cache occupancy
system.iocache.tags.occ_percent::total       0.205156                       # Average percentage of cache occupancy
system.iocache.tags.occ_task_id_blocks::1023           16                       # Occupied blocks per task id
system.iocache.tags.age_task_id_blocks_1023::3           16                       # Occupied blocks per task id
system.iocache.tags.occ_task_id_percent::1023            1                       # Percentage of cache occupancy per task id
system.iocache.tags.tag_accesses                 1755                       # Number of tag accesses
system.iocache.tags.data_accesses                1755                       # Number of data accesses
system.membus.pwrStateResidencyTicks::UNDEFINED 2541822037500                       # Cumulative time (in ticks) in various power states
system.membus.trans_dist::ReadReq                 108                       # Transaction distribution
system.membus.trans_dist::ReadResp             128029                       # Transaction distribution
system.membus.trans_dist::WriteReq                 99                       # Transaction distribution
system.membus.trans_dist::WriteResp                99                       # Transaction distribution
system.membus.trans_dist::WritebackDirty        34836                       # Transaction distribution
system.membus.trans_dist::WritebackClean        86495                       # Transaction distribution
system.membus.trans_dist::CleanEvict            34144                       # Transaction distribution
system.membus.trans_dist::UpgradeReq               16                       # Transaction distribution
system.membus.trans_dist::ReadExReq             28992                       # Transaction distribution
system.membus.trans_dist::ReadExResp            28992                       # Transaction distribution
system.membus.trans_dist::ReadCleanReq          87085                       # Transaction distribution
system.membus.trans_dist::ReadSharedReq         40839                       # Transaction distribution
system.membus.trans_dist::BadAddressError            3                       # Transaction distribution
system.membus.trans_dist::InvalidateReq           192                       # Transaction distribution
system.membus.pkt_count_system.iocache.mem_side::system.mem_ctrls.port          374                       # Packet count per connected master and slave (bytes)
system.membus.pkt_count_system.iocache.mem_side::total          374                       # Packet count per connected master and slave (bytes)
system.membus.pkt_count_system.cpu.icache.mem_side::system.mem_ctrls.port       260602                       # Packet count per connected master and slave (bytes)
system.membus.pkt_count_system.cpu.icache.mem_side::total       260602                       # Packet count per connected master and slave (bytes)
system.membus.pkt_count_system.cpu.dcache.mem_side::system.bridge.slave          414                       # Packet count per connected master and slave (bytes)
system.membus.pkt_count_system.cpu.dcache.mem_side::system.mem_ctrls.port       208467                       # Packet count per connected master and slave (bytes)
system.membus.pkt_count_system.cpu.dcache.mem_side::system.membus.badaddr_responder.pio            6                       # Packet count per connected master and slave (bytes)
system.membus.pkt_count_system.cpu.dcache.mem_side::total       208887                       # Packet count per connected master and slave (bytes)
system.membus.pkt_count::total                 469863                       # Packet count per connected master and slave (bytes)
system.membus.pkt_size_system.iocache.mem_side::system.mem_ctrls.port        11264                       # Cumulative packet size per connected master and slave (bytes)
system.membus.pkt_size_system.iocache.mem_side::total        11264                       # Cumulative packet size per connected master and slave (bytes)
system.membus.pkt_size_system.cpu.icache.mem_side::system.mem_ctrls.port     11105088                       # Cumulative packet size per connected master and slave (bytes)
system.membus.pkt_size_system.cpu.icache.mem_side::total     11105088                       # Cumulative packet size per connected master and slave (bytes)
system.membus.pkt_size_system.cpu.dcache.mem_side::system.bridge.slave          433                       # Cumulative packet size per connected master and slave (bytes)
system.membus.pkt_size_system.cpu.dcache.mem_side::system.mem_ctrls.port      6687040                       # Cumulative packet size per connected master and slave (bytes)
system.membus.pkt_size_system.cpu.dcache.mem_side::total      6687473                       # Cumulative packet size per connected master and slave (bytes)
system.membus.pkt_size::total                17803825                       # Cumulative packet size per connected master and slave (bytes)
system.membus.snoops                               66                       # Total snoops (count)
system.membus.snoopTraffic                       4224                       # Total snoop traffic (bytes)
system.membus.snoop_fanout::samples            157331                       # Request fanout histogram
system.membus.snoop_fanout::mean             0.002790                       # Request fanout histogram
system.membus.snoop_fanout::stdev            0.052750                       # Request fanout histogram
system.membus.snoop_fanout::underflows              0      0.00%      0.00% # Request fanout histogram
system.membus.snoop_fanout::0                  156892     99.72%     99.72% # Request fanout histogram
system.membus.snoop_fanout::1                     439      0.28%    100.00% # Request fanout histogram
system.membus.snoop_fanout::2                       0      0.00%    100.00% # Request fanout histogram
system.membus.snoop_fanout::3                       0      0.00%    100.00% # Request fanout histogram
system.membus.snoop_fanout::overflows               0      0.00%    100.00% # Request fanout histogram
system.membus.snoop_fanout::min_value               0                       # Request fanout histogram
system.membus.snoop_fanout::max_value               1                       # Request fanout histogram
system.membus.snoop_fanout::total              157331                       # Request fanout histogram
system.membus.reqLayer0.occupancy              353500                       # Layer occupancy (ticks)
system.membus.reqLayer0.utilization               0.0                       # Layer utilization (%)
system.membus.reqLayer1.occupancy           820142028                       # Layer occupancy (ticks)
system.membus.reqLayer1.utilization               6.9                       # Layer utilization (%)
system.membus.reqLayer2.occupancy                4500                       # Layer occupancy (ticks)
system.membus.reqLayer2.utilization               0.0                       # Layer utilization (%)
system.membus.respLayer1.occupancy              17997                       # Layer occupancy (ticks)
system.membus.respLayer1.utilization              0.0                       # Layer utilization (%)
system.membus.respLayer3.occupancy          375679250                       # Layer occupancy (ticks)
system.membus.respLayer3.utilization              3.2                       # Layer utilization (%)
system.membus.badaddr_responder.pwrStateResidencyTicks::UNDEFINED 2541822037500                       # Cumulative time (in ticks) in various power states
system.membus.respLayer2.occupancy          461708750                       # Layer occupancy (ticks)
system.membus.respLayer2.utilization              3.9                       # Layer utilization (%)
system.clk_domain.clock                          1000                       # Clock period in ticks
system.tsunami.fake_uart1.pwrStateResidencyTicks::UNDEFINED 2541822037500                       # Cumulative time (in ticks) in various power states
system.tsunami.fake_uart2.pwrStateResidencyTicks::UNDEFINED 2541822037500                       # Cumulative time (in ticks) in various power states
system.tsunami.fake_uart3.pwrStateResidencyTicks::UNDEFINED 2541822037500                       # Cumulative time (in ticks) in various power states
system.tsunami.fake_uart4.pwrStateResidencyTicks::UNDEFINED 2541822037500                       # Cumulative time (in ticks) in various power states
system.tsunami.fake_ppc.pwrStateResidencyTicks::UNDEFINED 2541822037500                       # Cumulative time (in ticks) in various power states
system.tsunami.cchip.pwrStateResidencyTicks::UNDEFINED 2541822037500                       # Cumulative time (in ticks) in various power states
system.tsunami.io.pwrStateResidencyTicks::UNDEFINED 2541822037500                       # Cumulative time (in ticks) in various power states
system.tsunami.pchip.pwrStateResidencyTicks::UNDEFINED 2541822037500                       # Cumulative time (in ticks) in various power states
system.tsunami.fake_ata1.pwrStateResidencyTicks::UNDEFINED 2541822037500                       # Cumulative time (in ticks) in various power states
system.tsunami.fake_ata0.pwrStateResidencyTicks::UNDEFINED 2541822037500                       # Cumulative time (in ticks) in various power states
system.tsunami.backdoor.pwrStateResidencyTicks::UNDEFINED 2541822037500                       # Cumulative time (in ticks) in various power states
system.tsunami.fake_pnp_read3.pwrStateResidencyTicks::UNDEFINED 2541822037500                       # Cumulative time (in ticks) in various power states
system.tsunami.fake_pnp_read2.pwrStateResidencyTicks::UNDEFINED 2541822037500                       # Cumulative time (in ticks) in various power states
system.tsunami.fake_pnp_read1.pwrStateResidencyTicks::UNDEFINED 2541822037500                       # Cumulative time (in ticks) in various power states
system.tsunami.fake_pnp_read0.pwrStateResidencyTicks::UNDEFINED 2541822037500                       # Cumulative time (in ticks) in various power states
system.tsunami.fake_pnp_read7.pwrStateResidencyTicks::UNDEFINED 2541822037500                       # Cumulative time (in ticks) in various power states
system.tsunami.fake_pnp_read6.pwrStateResidencyTicks::UNDEFINED 2541822037500                       # Cumulative time (in ticks) in various power states
system.tsunami.fake_pnp_read5.pwrStateResidencyTicks::UNDEFINED 2541822037500                       # Cumulative time (in ticks) in various power states
system.tsunami.fake_pnp_read4.pwrStateResidencyTicks::UNDEFINED 2541822037500                       # Cumulative time (in ticks) in various power states
system.tsunami.fake_pnp_write.pwrStateResidencyTicks::UNDEFINED 2541822037500                       # Cumulative time (in ticks) in various power states
system.tsunami.fb.pwrStateResidencyTicks::UNDEFINED 2541822037500                       # Cumulative time (in ticks) in various power states
system.tsunami.fake_pnp_addr.pwrStateResidencyTicks::UNDEFINED 2541822037500                       # Cumulative time (in ticks) in various power states
system.tsunami.fake_OROM.pwrStateResidencyTicks::UNDEFINED 2541822037500                       # Cumulative time (in ticks) in various power states
system.tsunami.uart.pwrStateResidencyTicks::UNDEFINED 2541822037500                       # Cumulative time (in ticks) in various power states
system.tsunami.fake_sm_chip.pwrStateResidencyTicks::UNDEFINED 2541822037500                       # Cumulative time (in ticks) in various power states
system.tsunami.ethernet.pwrStateResidencyTicks::UNDEFINED 2541822037500                       # Cumulative time (in ticks) in various power states
system.tsunami.ide.pwrStateResidencyTicks::UNDEFINED 2541822037500                       # Cumulative time (in ticks) in various power states
system.cpu_voltage_domain.voltage                   1                       # Voltage in Volts
system.mem_ctrls.pwrStateResidencyTicks::UNDEFINED 2541822037500                       # Cumulative time (in ticks) in various power states
system.mem_ctrls.bytes_read::.cpu.inst        5569408                       # Number of bytes read from this memory
system.mem_ctrls.bytes_read::.cpu.data        4468800                       # Number of bytes read from this memory
system.mem_ctrls.bytes_read::total           10038208                       # Number of bytes read from this memory
system.mem_ctrls.bytes_inst_read::.cpu.inst      5569408                       # Number of instructions bytes read from this memory
system.mem_ctrls.bytes_inst_read::total       5569408                       # Number of instructions bytes read from this memory
system.mem_ctrls.bytes_written::.writebacks      2229504                       # Number of bytes written to this memory
system.mem_ctrls.bytes_written::total         2229504                       # Number of bytes written to this memory
system.mem_ctrls.num_reads::.cpu.inst           87022                       # Number of read requests responded to by this memory
system.mem_ctrls.num_reads::.cpu.data           69825                       # Number of read requests responded to by this memory
system.mem_ctrls.num_reads::total              156847                       # Number of read requests responded to by this memory
system.mem_ctrls.num_writes::.writebacks        34836                       # Number of write requests responded to by this memory
system.mem_ctrls.num_writes::total              34836                       # Number of write requests responded to by this memory
system.mem_ctrls.bw_read::.cpu.inst         471496549                       # Total read bandwidth from this memory (bytes/s)
system.mem_ctrls.bw_read::.cpu.data         378320959                       # Total read bandwidth from this memory (bytes/s)
system.mem_ctrls.bw_read::total             849817508                       # Total read bandwidth from this memory (bytes/s)
system.mem_ctrls.bw_inst_read::.cpu.inst    471496549                       # Instruction read bandwidth from this memory (bytes/s)
system.mem_ctrls.bw_inst_read::total        471496549                       # Instruction read bandwidth from this memory (bytes/s)
system.mem_ctrls.bw_write::.writebacks      188745993                       # Write bandwidth from this memory (bytes/s)
system.mem_ctrls.bw_write::total            188745993                       # Write bandwidth from this memory (bytes/s)
system.mem_ctrls.bw_total::.writebacks      188745993                       # Total bandwidth to/from this memory (bytes/s)
system.mem_ctrls.bw_total::.cpu.inst        471496549                       # Total bandwidth to/from this memory (bytes/s)
system.mem_ctrls.bw_total::.cpu.data        378320959                       # Total bandwidth to/from this memory (bytes/s)
system.mem_ctrls.bw_total::total           1038563501                       # Total bandwidth to/from this memory (bytes/s)
system.mem_ctrls.avgPriority_.writebacks::samples    118982.00                       # Average QoS priority value for accepted requests
system.mem_ctrls.avgPriority_.cpu.inst::samples     77162.00                       # Average QoS priority value for accepted requests
system.mem_ctrls.avgPriority_.cpu.data::samples     69331.00                       # Average QoS priority value for accepted requests
system.mem_ctrls.priorityMinLatency      0.000000018750                       # per QoS priority minimum request to response latency (s)
system.mem_ctrls.priorityMaxLatency      0.000156868250                       # per QoS priority maximum request to response latency (s)
system.mem_ctrls.numReadWriteTurnArounds         7319                       # Number of turnarounds from READ to WRITE
system.mem_ctrls.numWriteReadTurnArounds         7320                       # Number of turnarounds from WRITE to READ
system.mem_ctrls.numStayReadState              406442                       # Number of times bus staying in READ state
system.mem_ctrls.numStayWriteState             111731                       # Number of times bus staying in WRITE state
system.mem_ctrls.readReqs                      156847                       # Number of read requests accepted
system.mem_ctrls.writeReqs                     121115                       # Number of write requests accepted
system.mem_ctrls.readBursts                    156847                       # Number of DRAM read bursts, including those serviced by the write queue
system.mem_ctrls.writeBursts                   121115                       # Number of DRAM write bursts, including those merged in the write queue
system.mem_ctrls.servicedByWrQ                  10354                       # Number of DRAM read bursts serviced by the write queue
system.mem_ctrls.mergedWrBursts                  2133                       # Number of DRAM write bursts merged with an existing one
system.mem_ctrls.neitherReadNorWriteReqs            0                       # Number of requests that are neither read nor write
system.mem_ctrls.perBankRdBursts::0              8731                       # Per bank write bursts
system.mem_ctrls.perBankRdBursts::1              6704                       # Per bank write bursts
system.mem_ctrls.perBankRdBursts::2              9930                       # Per bank write bursts
system.mem_ctrls.perBankRdBursts::3              7129                       # Per bank write bursts
system.mem_ctrls.perBankRdBursts::4              8493                       # Per bank write bursts
system.mem_ctrls.perBankRdBursts::5             10050                       # Per bank write bursts
system.mem_ctrls.perBankRdBursts::6              8500                       # Per bank write bursts
system.mem_ctrls.perBankRdBursts::7              8671                       # Per bank write bursts
system.mem_ctrls.perBankRdBursts::8             11805                       # Per bank write bursts
system.mem_ctrls.perBankRdBursts::9              9230                       # Per bank write bursts
system.mem_ctrls.perBankRdBursts::10            10652                       # Per bank write bursts
system.mem_ctrls.perBankRdBursts::11            11966                       # Per bank write bursts
system.mem_ctrls.perBankRdBursts::12             8871                       # Per bank write bursts
system.mem_ctrls.perBankRdBursts::13            13480                       # Per bank write bursts
system.mem_ctrls.perBankRdBursts::14             5501                       # Per bank write bursts
system.mem_ctrls.perBankRdBursts::15             6780                       # Per bank write bursts
system.mem_ctrls.perBankWrBursts::0              7055                       # Per bank write bursts
system.mem_ctrls.perBankWrBursts::1              4528                       # Per bank write bursts
system.mem_ctrls.perBankWrBursts::2              8590                       # Per bank write bursts
system.mem_ctrls.perBankWrBursts::3              7950                       # Per bank write bursts
system.mem_ctrls.perBankWrBursts::4              7696                       # Per bank write bursts
system.mem_ctrls.perBankWrBursts::5              9904                       # Per bank write bursts
system.mem_ctrls.perBankWrBursts::6              7271                       # Per bank write bursts
system.mem_ctrls.perBankWrBursts::7              6858                       # Per bank write bursts
system.mem_ctrls.perBankWrBursts::8             10562                       # Per bank write bursts
system.mem_ctrls.perBankWrBursts::9              8382                       # Per bank write bursts
system.mem_ctrls.perBankWrBursts::10             7926                       # Per bank write bursts
system.mem_ctrls.perBankWrBursts::11             8020                       # Per bank write bursts
system.mem_ctrls.perBankWrBursts::12             5448                       # Per bank write bursts
system.mem_ctrls.perBankWrBursts::13             9937                       # Per bank write bursts
system.mem_ctrls.perBankWrBursts::14             3155                       # Per bank write bursts
system.mem_ctrls.perBankWrBursts::15             5671                       # Per bank write bursts
system.mem_ctrls.avgRdQLen                       1.09                       # Average read queue length when enqueuing
system.mem_ctrls.avgWrQLen                      25.69                       # Average write queue length when enqueuing
system.mem_ctrls.totQLat                   2003615000                       # Total ticks spent queuing
system.mem_ctrls.totBusLat                  732465000                       # Total ticks spent in databus transfers
system.mem_ctrls.totMemAccLat              4750358750                       # Total ticks spent from burst creation until serviced by the DRAM
system.mem_ctrls.avgQLat                     13677.21                       # Average queueing delay per DRAM burst
system.mem_ctrls.avgBusLat                    5000.00                       # Average bus latency per DRAM burst
system.mem_ctrls.avgMemAccLat                32427.21                       # Average memory access latency per DRAM burst
system.mem_ctrls.numRdRetry                         0                       # Number of times read queue was full causing retry
system.mem_ctrls.numWrRetry                         0                       # Number of times write queue was full causing retry
system.mem_ctrls.readRowHits                   103752                       # Number of row buffer hits during reads
system.mem_ctrls.writeRowHits                   80270                       # Number of row buffer hits during writes
system.mem_ctrls.readRowHitRate                 70.82                       # Row buffer hit rate for reads
system.mem_ctrls.writeRowHitRate                67.46                       # Row buffer hit rate for writes
system.mem_ctrls.readPktSize::0                     0                       # Read request sizes (log2)
system.mem_ctrls.readPktSize::1                     0                       # Read request sizes (log2)
system.mem_ctrls.readPktSize::2                     0                       # Read request sizes (log2)
system.mem_ctrls.readPktSize::3                     0                       # Read request sizes (log2)
system.mem_ctrls.readPktSize::4                     0                       # Read request sizes (log2)
system.mem_ctrls.readPktSize::5                     0                       # Read request sizes (log2)
system.mem_ctrls.readPktSize::6                156847                       # Read request sizes (log2)
system.mem_ctrls.writePktSize::0                    0                       # Write request sizes (log2)
system.mem_ctrls.writePktSize::1                    0                       # Write request sizes (log2)
system.mem_ctrls.writePktSize::2                    0                       # Write request sizes (log2)
system.mem_ctrls.writePktSize::3                    0                       # Write request sizes (log2)
system.mem_ctrls.writePktSize::4                    0                       # Write request sizes (log2)
system.mem_ctrls.writePktSize::5                    0                       # Write request sizes (log2)
system.mem_ctrls.writePktSize::6               121115                       # Write request sizes (log2)
system.mem_ctrls.rdQLenPdf::0                  134092                       # What read queue length does an incoming req see
system.mem_ctrls.rdQLenPdf::1                   12094                       # What read queue length does an incoming req see
system.mem_ctrls.rdQLenPdf::2                     307                       # What read queue length does an incoming req see
system.mem_ctrls.rdQLenPdf::3                       0                       # What read queue length does an incoming req see
system.mem_ctrls.rdQLenPdf::4                       0                       # What read queue length does an incoming req see
system.mem_ctrls.rdQLenPdf::5                       0                       # What read queue length does an incoming req see
system.mem_ctrls.rdQLenPdf::6                       0                       # What read queue length does an incoming req see
system.mem_ctrls.rdQLenPdf::7                       0                       # What read queue length does an incoming req see
system.mem_ctrls.rdQLenPdf::8                       0                       # What read queue length does an incoming req see
system.mem_ctrls.rdQLenPdf::9                       0                       # What read queue length does an incoming req see
system.mem_ctrls.rdQLenPdf::10                      0                       # What read queue length does an incoming req see
system.mem_ctrls.rdQLenPdf::11                      0                       # What read queue length does an incoming req see
system.mem_ctrls.rdQLenPdf::12                      0                       # What read queue length does an incoming req see
system.mem_ctrls.rdQLenPdf::13                      0                       # What read queue length does an incoming req see
system.mem_ctrls.rdQLenPdf::14                      0                       # What read queue length does an incoming req see
system.mem_ctrls.rdQLenPdf::15                      0                       # What read queue length does an incoming req see
system.mem_ctrls.rdQLenPdf::16                      0                       # What read queue length does an incoming req see
system.mem_ctrls.rdQLenPdf::17                      0                       # What read queue length does an incoming req see
system.mem_ctrls.rdQLenPdf::18                      0                       # What read queue length does an incoming req see
system.mem_ctrls.rdQLenPdf::19                      0                       # What read queue length does an incoming req see
system.mem_ctrls.rdQLenPdf::20                      0                       # What read queue length does an incoming req see
system.mem_ctrls.rdQLenPdf::21                      0                       # What read queue length does an incoming req see
system.mem_ctrls.rdQLenPdf::22                      0                       # What read queue length does an incoming req see
system.mem_ctrls.rdQLenPdf::23                      0                       # What read queue length does an incoming req see
system.mem_ctrls.rdQLenPdf::24                      0                       # What read queue length does an incoming req see
system.mem_ctrls.rdQLenPdf::25                      0                       # What read queue length does an incoming req see
system.mem_ctrls.rdQLenPdf::26                      0                       # What read queue length does an incoming req see
system.mem_ctrls.rdQLenPdf::27                      0                       # What read queue length does an incoming req see
system.mem_ctrls.rdQLenPdf::28                      0                       # What read queue length does an incoming req see
system.mem_ctrls.rdQLenPdf::29                      0                       # What read queue length does an incoming req see
system.mem_ctrls.rdQLenPdf::30                      0                       # What read queue length does an incoming req see
system.mem_ctrls.rdQLenPdf::31                      0                       # What read queue length does an incoming req see
system.mem_ctrls.wrQLenPdf::0                       1                       # What write queue length does an incoming req see
system.mem_ctrls.wrQLenPdf::1                       1                       # What write queue length does an incoming req see
system.mem_ctrls.wrQLenPdf::2                       1                       # What write queue length does an incoming req see
system.mem_ctrls.wrQLenPdf::3                       1                       # What write queue length does an incoming req see
system.mem_ctrls.wrQLenPdf::4                       1                       # What write queue length does an incoming req see
system.mem_ctrls.wrQLenPdf::5                       1                       # What write queue length does an incoming req see
system.mem_ctrls.wrQLenPdf::6                       1                       # What write queue length does an incoming req see
system.mem_ctrls.wrQLenPdf::7                       1                       # What write queue length does an incoming req see
system.mem_ctrls.wrQLenPdf::8                       1                       # What write queue length does an incoming req see
system.mem_ctrls.wrQLenPdf::9                       1                       # What write queue length does an incoming req see
system.mem_ctrls.wrQLenPdf::10                      1                       # What write queue length does an incoming req see
system.mem_ctrls.wrQLenPdf::11                      1                       # What write queue length does an incoming req see
system.mem_ctrls.wrQLenPdf::12                      1                       # What write queue length does an incoming req see
system.mem_ctrls.wrQLenPdf::13                      1                       # What write queue length does an incoming req see
system.mem_ctrls.wrQLenPdf::14                      1                       # What write queue length does an incoming req see
system.mem_ctrls.wrQLenPdf::15                    676                       # What write queue length does an incoming req see
system.mem_ctrls.wrQLenPdf::16                    777                       # What write queue length does an incoming req see
system.mem_ctrls.wrQLenPdf::17                   6752                       # What write queue length does an incoming req see
system.mem_ctrls.wrQLenPdf::18                   7333                       # What write queue length does an incoming req see
system.mem_ctrls.wrQLenPdf::19                   7455                       # What write queue length does an incoming req see
system.mem_ctrls.wrQLenPdf::20                   7404                       # What write queue length does an incoming req see
system.mem_ctrls.wrQLenPdf::21                   7399                       # What write queue length does an incoming req see
system.mem_ctrls.wrQLenPdf::22                   7487                       # What write queue length does an incoming req see
system.mem_ctrls.wrQLenPdf::23                   7415                       # What write queue length does an incoming req see
system.mem_ctrls.wrQLenPdf::24                   7392                       # What write queue length does an incoming req see
system.mem_ctrls.wrQLenPdf::25                   7386                       # What write queue length does an incoming req see
system.mem_ctrls.wrQLenPdf::26                   7407                       # What write queue length does an incoming req see
system.mem_ctrls.wrQLenPdf::27                   7362                       # What write queue length does an incoming req see
system.mem_ctrls.wrQLenPdf::28                   7374                       # What write queue length does an incoming req see
system.mem_ctrls.wrQLenPdf::29                   7348                       # What write queue length does an incoming req see
system.mem_ctrls.wrQLenPdf::30                   7333                       # What write queue length does an incoming req see
system.mem_ctrls.wrQLenPdf::31                   7326                       # What write queue length does an incoming req see
system.mem_ctrls.wrQLenPdf::32                   7323                       # What write queue length does an incoming req see
system.mem_ctrls.wrQLenPdf::33                     12                       # What write queue length does an incoming req see
system.mem_ctrls.wrQLenPdf::34                      4                       # What write queue length does an incoming req see
system.mem_ctrls.wrQLenPdf::35                      2                       # What write queue length does an incoming req see
system.mem_ctrls.wrQLenPdf::36                      0                       # What write queue length does an incoming req see
system.mem_ctrls.wrQLenPdf::37                      0                       # What write queue length does an incoming req see
system.mem_ctrls.wrQLenPdf::38                      0                       # What write queue length does an incoming req see
system.mem_ctrls.wrQLenPdf::39                      0                       # What write queue length does an incoming req see
system.mem_ctrls.wrQLenPdf::40                      0                       # What write queue length does an incoming req see
system.mem_ctrls.wrQLenPdf::41                      0                       # What write queue length does an incoming req see
system.mem_ctrls.wrQLenPdf::42                      0                       # What write queue length does an incoming req see
system.mem_ctrls.wrQLenPdf::43                      0                       # What write queue length does an incoming req see
system.mem_ctrls.wrQLenPdf::44                      0                       # What write queue length does an incoming req see
system.mem_ctrls.wrQLenPdf::45                      0                       # What write queue length does an incoming req see
system.mem_ctrls.wrQLenPdf::46                      0                       # What write queue length does an incoming req see
system.mem_ctrls.wrQLenPdf::47                      0                       # What write queue length does an incoming req see
system.mem_ctrls.wrQLenPdf::48                      0                       # What write queue length does an incoming req see
system.mem_ctrls.wrQLenPdf::49                      0                       # What write queue length does an incoming req see
system.mem_ctrls.wrQLenPdf::50                      0                       # What write queue length does an incoming req see
system.mem_ctrls.wrQLenPdf::51                      0                       # What write queue length does an incoming req see
system.mem_ctrls.wrQLenPdf::52                      0                       # What write queue length does an incoming req see
system.mem_ctrls.wrQLenPdf::53                      0                       # What write queue length does an incoming req see
system.mem_ctrls.wrQLenPdf::54                      0                       # What write queue length does an incoming req see
system.mem_ctrls.wrQLenPdf::55                      0                       # What write queue length does an incoming req see
system.mem_ctrls.wrQLenPdf::56                      0                       # What write queue length does an incoming req see
system.mem_ctrls.wrQLenPdf::57                      0                       # What write queue length does an incoming req see
system.mem_ctrls.wrQLenPdf::58                      0                       # What write queue length does an incoming req see
system.mem_ctrls.wrQLenPdf::59                      0                       # What write queue length does an incoming req see
system.mem_ctrls.wrQLenPdf::60                      0                       # What write queue length does an incoming req see
system.mem_ctrls.wrQLenPdf::61                      0                       # What write queue length does an incoming req see
system.mem_ctrls.wrQLenPdf::62                      0                       # What write queue length does an incoming req see
system.mem_ctrls.wrQLenPdf::63                      0                       # What write queue length does an incoming req see
system.mem_ctrls.bytesPerActivate::samples        81420                       # Bytes accessed per row activation
system.mem_ctrls.bytesPerActivate::mean    208.646917                       # Bytes accessed per row activation
system.mem_ctrls.bytesPerActivate::gmean   140.258983                       # Bytes accessed per row activation
system.mem_ctrls.bytesPerActivate::stdev   225.503140                       # Bytes accessed per row activation
system.mem_ctrls.bytesPerActivate::0-127        34433     42.29%     42.29% # Bytes accessed per row activation
system.mem_ctrls.bytesPerActivate::128-255        24294     29.84%     72.13% # Bytes accessed per row activation
system.mem_ctrls.bytesPerActivate::256-383         9932     12.20%     84.33% # Bytes accessed per row activation
system.mem_ctrls.bytesPerActivate::384-511         4651      5.71%     90.04% # Bytes accessed per row activation
system.mem_ctrls.bytesPerActivate::512-639         2366      2.91%     92.95% # Bytes accessed per row activation
system.mem_ctrls.bytesPerActivate::640-767         1391      1.71%     94.65% # Bytes accessed per row activation
system.mem_ctrls.bytesPerActivate::768-895          918      1.13%     95.78% # Bytes accessed per row activation
system.mem_ctrls.bytesPerActivate::896-1023          612      0.75%     96.53% # Bytes accessed per row activation
system.mem_ctrls.bytesPerActivate::1024-1151         2823      3.47%    100.00% # Bytes accessed per row activation
system.mem_ctrls.bytesPerActivate::total        81420                       # Bytes accessed per row activation
system.mem_ctrls.rdPerTurnAround::samples         7320                       # Reads before turning the bus around for writes
system.mem_ctrls.rdPerTurnAround::mean      20.012705                       # Reads before turning the bus around for writes
system.mem_ctrls.rdPerTurnAround::gmean     18.383406                       # Reads before turning the bus around for writes
system.mem_ctrls.rdPerTurnAround::stdev     12.848300                       # Reads before turning the bus around for writes
system.mem_ctrls.rdPerTurnAround::0-15           1285     17.55%     17.55% # Reads before turning the bus around for writes
system.mem_ctrls.rdPerTurnAround::16-31          5559     75.94%     93.50% # Reads before turning the bus around for writes
system.mem_ctrls.rdPerTurnAround::32-47           286      3.91%     97.40% # Reads before turning the bus around for writes
system.mem_ctrls.rdPerTurnAround::48-63            88      1.20%     98.61% # Reads before turning the bus around for writes
system.mem_ctrls.rdPerTurnAround::64-79            43      0.59%     99.19% # Reads before turning the bus around for writes
system.mem_ctrls.rdPerTurnAround::80-95            22      0.30%     99.49% # Reads before turning the bus around for writes
system.mem_ctrls.rdPerTurnAround::96-111            6      0.08%     99.58% # Reads before turning the bus around for writes
system.mem_ctrls.rdPerTurnAround::112-127            9      0.12%     99.70% # Reads before turning the bus around for writes
system.mem_ctrls.rdPerTurnAround::128-143           13      0.18%     99.88% # Reads before turning the bus around for writes
system.mem_ctrls.rdPerTurnAround::144-159            5      0.07%     99.95% # Reads before turning the bus around for writes
system.mem_ctrls.rdPerTurnAround::160-175            1      0.01%     99.96% # Reads before turning the bus around for writes
system.mem_ctrls.rdPerTurnAround::192-207            1      0.01%     99.97% # Reads before turning the bus around for writes
system.mem_ctrls.rdPerTurnAround::256-271            1      0.01%     99.99% # Reads before turning the bus around for writes
system.mem_ctrls.rdPerTurnAround::400-415            1      0.01%    100.00% # Reads before turning the bus around for writes
system.mem_ctrls.rdPerTurnAround::total          7320                       # Reads before turning the bus around for writes
system.mem_ctrls.wrPerTurnAround::samples         7319                       # Writes before turning the bus around for reads
system.mem_ctrls.wrPerTurnAround::mean      16.252084                       # Writes before turning the bus around for reads
system.mem_ctrls.wrPerTurnAround::gmean     16.235685                       # Writes before turning the bus around for reads
system.mem_ctrls.wrPerTurnAround::stdev      0.763680                       # Writes before turning the bus around for reads
system.mem_ctrls.wrPerTurnAround::16             6512     88.97%     88.97% # Writes before turning the bus around for reads
system.mem_ctrls.wrPerTurnAround::17               98      1.34%     90.31% # Writes before turning the bus around for reads
system.mem_ctrls.wrPerTurnAround::18              454      6.20%     96.52% # Writes before turning the bus around for reads
system.mem_ctrls.wrPerTurnAround::19              184      2.51%     99.03% # Writes before turning the bus around for reads
system.mem_ctrls.wrPerTurnAround::20               68      0.93%     99.96% # Writes before turning the bus around for reads
system.mem_ctrls.wrPerTurnAround::21                3      0.04%    100.00% # Writes before turning the bus around for reads
system.mem_ctrls.wrPerTurnAround::total          7319                       # Writes before turning the bus around for reads
system.mem_ctrls.bytesReadDRAM                9375552                       # Total number of bytes read from DRAM
system.mem_ctrls.bytesReadWrQ                  662656                       # Total number of bytes read from write queue
system.mem_ctrls.bytesWritten                 7612992                       # Total number of bytes written to DRAM
system.mem_ctrls.bytesReadSys                10038208                       # Total read bytes from the system interface side
system.mem_ctrls.bytesWrittenSys              7751360                       # Total written bytes from the system interface side
system.mem_ctrls.avgRdBW                       793.72                       # Average DRAM read bandwidth in MiByte/s
system.mem_ctrls.avgWrBW                       644.50                       # Average achieved write bandwidth in MiByte/s
system.mem_ctrls.avgRdBWSys                    849.82                       # Average system read bandwidth in MiByte/s
system.mem_ctrls.avgWrBWSys                    656.22                       # Average system write bandwidth in MiByte/s
system.mem_ctrls.peakBW                      12800.00                       # Theoretical peak bandwidth in MiByte/s
system.mem_ctrls.busUtil                        11.24                       # Data bus utilization in percentage
system.mem_ctrls.busUtilRead                     6.20                       # Data bus utilization in percentage for reads
system.mem_ctrls.busUtilWrite                    5.04                       # Data bus utilization in percentage for writes
system.mem_ctrls.totGap                   11812187500                       # Total gap between requests
system.mem_ctrls.avgGap                      42495.69                       # Average gap between requests
system.mem_ctrls.masterReadBytes::.cpu.inst      4938368                       # Per-master bytes read from memory
system.mem_ctrls.masterReadBytes::.cpu.data      4437184                       # Per-master bytes read from memory
system.mem_ctrls.masterWriteBytes::.writebacks      7612992                       # Per-master bytes write to memory
system.mem_ctrls.masterReadRate::.cpu.inst 418073782.661432206631                       # Per-master bytes read from memory rate (Bytes/sec)
system.mem_ctrls.masterReadRate::.cpu.data 375644403.018321931362                       # Per-master bytes read from memory rate (Bytes/sec)
[...]
system.cpu.icache.tags.occ_percent::total            1                       # Average percentage of cache occupancy
system.cpu.icache.tags.occ_task_id_blocks::1024          512                       # Occupied blocks per task id
system.cpu.icache.tags.age_task_id_blocks_1024::1           13                       # Occupied blocks per task id
system.cpu.icache.tags.age_task_id_blocks_1024::2          162                       # Occupied blocks per task id
system.cpu.icache.tags.age_task_id_blocks_1024::3          322                       # Occupied blocks per task id
system.cpu.icache.tags.age_task_id_blocks_1024::4           15                       # Occupied blocks per task id
system.cpu.icache.tags.occ_task_id_percent::1024            1                       # Percentage of cache occupancy per task id
system.cpu.icache.tags.tag_accesses         253573128                       # Number of tag accesses
system.cpu.icache.tags.data_accesses        253573128                       # Number of data accesses
system.cpu.dcache.pwrStateResidencyTicks::UNDEFINED 278367696000                       # Cumulative time (in ticks) in various power states
system.cpu.dcache.demand_hits::.cpu.data    134292447                       # number of demand (read+write) hits
system.cpu.dcache.demand_hits::total        134292447                       # number of demand (read+write) hits
system.cpu.dcache.overall_hits::.cpu.data    134292447                       # number of overall hits
system.cpu.dcache.overall_hits::total       134292447                       # number of overall hits
system.cpu.dcache.demand_misses::.cpu.data       417560                       # number of demand (read+write) misses
system.cpu.dcache.demand_misses::total         417560                       # number of demand (read+write) misses
system.cpu.dcache.overall_misses::.cpu.data       417560                       # number of overall misses
system.cpu.dcache.overall_misses::total        417560                       # number of overall misses
system.cpu.dcache.demand_miss_latency::.cpu.data  26964850000                       # number of demand (read+write) miss cycles
system.cpu.dcache.demand_miss_latency::total  26964850000                       # number of demand (read+write) miss cycles
system.cpu.dcache.overall_miss_latency::.cpu.data  26964850000                       # number of overall miss cycles
system.cpu.dcache.overall_miss_latency::total  26964850000                       # number of overall miss cycles
system.cpu.dcache.demand_accesses::.cpu.data    134710007                       # number of demand (read+write) accesses
system.cpu.dcache.demand_accesses::total    134710007                       # number of demand (read+write) accesses
system.cpu.dcache.overall_accesses::.cpu.data    134710007                       # number of overall (read+write) accesses
system.cpu.dcache.overall_accesses::total    134710007                       # number of overall (read+write) accesses
system.cpu.dcache.demand_miss_rate::.cpu.data     0.003100                       # miss rate for demand accesses
system.cpu.dcache.demand_miss_rate::total     0.003100                       # miss rate for demand accesses
system.cpu.dcache.overall_miss_rate::.cpu.data     0.003100                       # miss rate for overall accesses
system.cpu.dcache.overall_miss_rate::total     0.003100                       # miss rate for overall accesses
system.cpu.dcache.demand_avg_miss_latency::.cpu.data 64577.186512                       # average overall miss latency
system.cpu.dcache.demand_avg_miss_latency::total 64577.186512                       # average overall miss latency
system.cpu.dcache.overall_avg_miss_latency::.cpu.data 64577.186512                       # average overall miss latency
system.cpu.dcache.overall_avg_miss_latency::total 64577.186512                       # average overall miss latency
system.cpu.dcache.blocked_cycles::no_mshrs            0                       # number of cycles access was blocked
system.cpu.dcache.blocked_cycles::no_targets            0                       # number of cycles access was blocked
system.cpu.dcache.blocked::no_mshrs                 0                       # number of cycles access was blocked
system.cpu.dcache.blocked::no_targets               0                       # number of cycles access was blocked
system.cpu.dcache.avg_blocked_cycles::no_mshrs          nan                       # average number of cycles each access was blocked
system.cpu.dcache.avg_blocked_cycles::no_targets          nan                       # average number of cycles each access was blocked
system.cpu.dcache.writebacks::.writebacks       226323                       # number of writebacks
system.cpu.dcache.writebacks::total            226323                       # number of writebacks
system.cpu.dcache.demand_mshr_hits::.cpu.data        82810                       # number of demand (read+write) MSHR hits
system.cpu.dcache.demand_mshr_hits::total        82810                       # number of demand (read+write) MSHR hits
system.cpu.dcache.overall_mshr_hits::.cpu.data        82810                       # number of overall MSHR hits
system.cpu.dcache.overall_mshr_hits::total        82810                       # number of overall MSHR hits
system.cpu.dcache.demand_mshr_misses::.cpu.data       334750                       # number of demand (read+write) MSHR misses
system.cpu.dcache.demand_mshr_misses::total       334750                       # number of demand (read+write) MSHR misses
system.cpu.dcache.overall_mshr_misses::.cpu.data       334750                       # number of overall MSHR misses
system.cpu.dcache.overall_mshr_misses::total       334750                       # number of overall MSHR misses
system.cpu.dcache.overall_mshr_uncacheable_misses::.cpu.data         1437                       # number of overall MSHR uncacheable misses
system.cpu.dcache.overall_mshr_uncacheable_misses::total         1437                       # number of overall MSHR uncacheable misses
system.cpu.dcache.demand_mshr_miss_latency::.cpu.data  21554919500                       # number of demand (read+write) MSHR miss cycles
system.cpu.dcache.demand_mshr_miss_latency::total  21554919500                       # number of demand (read+write) MSHR miss cycles
system.cpu.dcache.overall_mshr_miss_latency::.cpu.data  21554919500                       # number of overall MSHR miss cycles
system.cpu.dcache.overall_mshr_miss_latency::total  21554919500                       # number of overall MSHR miss cycles
system.cpu.dcache.overall_mshr_uncacheable_latency::.cpu.data     66865500                       # number of overall MSHR uncacheable cycles
system.cpu.dcache.overall_mshr_uncacheable_latency::total     66865500                       # number of overall MSHR uncacheable cycles
system.cpu.dcache.demand_mshr_miss_rate::.cpu.data     0.002485                       # mshr miss rate for demand accesses
system.cpu.dcache.demand_mshr_miss_rate::total     0.002485                       # mshr miss rate for demand accesses
system.cpu.dcache.overall_mshr_miss_rate::.cpu.data     0.002485                       # mshr miss rate for overall accesses
system.cpu.dcache.overall_mshr_miss_rate::total     0.002485                       # mshr miss rate for overall accesses
system.cpu.dcache.demand_avg_mshr_miss_latency::.cpu.data 64391.096341                       # average overall mshr miss latency
system.cpu.dcache.demand_avg_mshr_miss_latency::total 64391.096341                       # average overall mshr miss latency
system.cpu.dcache.overall_avg_mshr_miss_latency::.cpu.data 64391.096341                       # average overall mshr miss latency
system.cpu.dcache.overall_avg_mshr_miss_latency::total 64391.096341                       # average overall mshr miss latency
system.cpu.dcache.overall_avg_mshr_uncacheable_latency::.cpu.data 46531.315240                       # average overall mshr uncacheable latency
system.cpu.dcache.overall_avg_mshr_uncacheable_latency::total 46531.315240                       # average overall mshr uncacheable latency
system.cpu.dcache.replacements                 337090                       # number of replacements
system.cpu.dcache.ReadReq_hits::.cpu.data     93337617                       # number of ReadReq hits
system.cpu.dcache.ReadReq_hits::total        93337617                       # number of ReadReq hits
system.cpu.dcache.ReadReq_misses::.cpu.data       236362                       # number of ReadReq misses
system.cpu.dcache.ReadReq_misses::total        236362                       # number of ReadReq misses
system.cpu.dcache.ReadReq_miss_latency::.cpu.data  16041772000                       # number of ReadReq miss cycles
system.cpu.dcache.ReadReq_miss_latency::total  16041772000                       # number of ReadReq miss cycles
system.cpu.dcache.ReadReq_accesses::.cpu.data     93573979                       # number of ReadReq accesses(hits+misses)
system.cpu.dcache.ReadReq_accesses::total     93573979                       # number of ReadReq accesses(hits+misses)
system.cpu.dcache.ReadReq_miss_rate::.cpu.data     0.002526                       # miss rate for ReadReq accesses
system.cpu.dcache.ReadReq_miss_rate::total     0.002526                       # miss rate for ReadReq accesses
system.cpu.dcache.ReadReq_avg_miss_latency::.cpu.data 67869.505250                       # average ReadReq miss latency
system.cpu.dcache.ReadReq_avg_miss_latency::total 67869.505250                       # average ReadReq miss latency
system.cpu.dcache.ReadReq_mshr_hits::.cpu.data          412                       # number of ReadReq MSHR hits
system.cpu.dcache.ReadReq_mshr_hits::total          412                       # number of ReadReq MSHR hits
system.cpu.dcache.ReadReq_mshr_misses::.cpu.data       235950                       # number of ReadReq MSHR misses
system.cpu.dcache.ReadReq_mshr_misses::total       235950                       # number of ReadReq MSHR misses
system.cpu.dcache.ReadReq_mshr_uncacheable::.cpu.data          429                       # number of ReadReq MSHR uncacheable
system.cpu.dcache.ReadReq_mshr_uncacheable::total          429                       # number of ReadReq MSHR uncacheable
system.cpu.dcache.ReadReq_mshr_miss_latency::.cpu.data  15776531500                       # number of ReadReq MSHR miss cycles
system.cpu.dcache.ReadReq_mshr_miss_latency::total  15776531500                       # number of ReadReq MSHR miss cycles
system.cpu.dcache.ReadReq_mshr_uncacheable_latency::.cpu.data     66865500                       # number of ReadReq MSHR uncacheable cycles
system.cpu.dcache.ReadReq_mshr_uncacheable_latency::total     66865500                       # number of ReadReq MSHR uncacheable cycles
system.cpu.dcache.ReadReq_mshr_miss_rate::.cpu.data     0.002522                       # mshr miss rate for ReadReq accesses
system.cpu.dcache.ReadReq_mshr_miss_rate::total     0.002522                       # mshr miss rate for ReadReq accesses
system.cpu.dcache.ReadReq_avg_mshr_miss_latency::.cpu.data 66863.875821                       # average ReadReq mshr miss latency
system.cpu.dcache.ReadReq_avg_mshr_miss_latency::total 66863.875821                       # average ReadReq mshr miss latency
system.cpu.dcache.ReadReq_avg_mshr_uncacheable_latency::.cpu.data 155863.636364                       # average ReadReq mshr uncacheable latency
system.cpu.dcache.ReadReq_avg_mshr_uncacheable_latency::total 155863.636364                       # average ReadReq mshr uncacheable latency
system.cpu.dcache.WriteReq_hits::.cpu.data     40954830                       # number of WriteReq hits
system.cpu.dcache.WriteReq_hits::total       40954830                       # number of WriteReq hits
system.cpu.dcache.WriteReq_misses::.cpu.data       181198                       # number of WriteReq misses
system.cpu.dcache.WriteReq_misses::total       181198                       # number of WriteReq misses
system.cpu.dcache.WriteReq_miss_latency::.cpu.data  10923078000                       # number of WriteReq miss cycles
system.cpu.dcache.WriteReq_miss_latency::total  10923078000                       # number of WriteReq miss cycles
system.cpu.dcache.WriteReq_accesses::.cpu.data     41136028                       # number of WriteReq accesses(hits+misses)
system.cpu.dcache.WriteReq_accesses::total     41136028                       # number of WriteReq accesses(hits+misses)
system.cpu.dcache.WriteReq_miss_rate::.cpu.data     0.004405                       # miss rate for WriteReq accesses
system.cpu.dcache.WriteReq_miss_rate::total     0.004405                       # miss rate for WriteReq accesses
system.cpu.dcache.WriteReq_avg_miss_latency::.cpu.data 60282.552788                       # average WriteReq miss latency
system.cpu.dcache.WriteReq_avg_miss_latency::total 60282.552788                       # average WriteReq miss latency
system.cpu.dcache.WriteReq_mshr_hits::.cpu.data        82398                       # number of WriteReq MSHR hits
system.cpu.dcache.WriteReq_mshr_hits::total        82398                       # number of WriteReq MSHR hits
system.cpu.dcache.WriteReq_mshr_misses::.cpu.data        98800                       # number of WriteReq MSHR misses
system.cpu.dcache.WriteReq_mshr_misses::total        98800                       # number of WriteReq MSHR misses
system.cpu.dcache.WriteReq_mshr_uncacheable::.cpu.data         1008                       # number of WriteReq MSHR uncacheable
system.cpu.dcache.WriteReq_mshr_uncacheable::total         1008                       # number of WriteReq MSHR uncacheable
system.cpu.dcache.WriteReq_mshr_miss_latency::.cpu.data   5778388000                       # number of WriteReq MSHR miss cycles
system.cpu.dcache.WriteReq_mshr_miss_latency::total   5778388000                       # number of WriteReq MSHR miss cycles
system.cpu.dcache.WriteReq_mshr_miss_rate::.cpu.data     0.002402                       # mshr miss rate for WriteReq accesses
system.cpu.dcache.WriteReq_mshr_miss_rate::total     0.002402                       # mshr miss rate for WriteReq accesses
system.cpu.dcache.WriteReq_avg_mshr_miss_latency::.cpu.data 58485.708502                       # average WriteReq mshr miss latency
system.cpu.dcache.WriteReq_avg_mshr_miss_latency::total 58485.708502                       # average WriteReq mshr miss latency
system.cpu.dcache.LoadLockedReq_hits::.cpu.data      9334102                       # number of LoadLockedReq hits
system.cpu.dcache.LoadLockedReq_hits::total      9334102                       # number of LoadLockedReq hits
system.cpu.dcache.LoadLockedReq_misses::.cpu.data         2352                       # number of LoadLockedReq misses
system.cpu.dcache.LoadLockedReq_misses::total         2352                       # number of LoadLockedReq misses
system.cpu.dcache.LoadLockedReq_miss_latency::.cpu.data    185513000                       # number of LoadLockedReq miss cycles
system.cpu.dcache.LoadLockedReq_miss_latency::total    185513000                       # number of LoadLockedReq miss cycles
system.cpu.dcache.LoadLockedReq_accesses::.cpu.data      9336454                       # number of LoadLockedReq accesses(hits+misses)
system.cpu.dcache.LoadLockedReq_accesses::total      9336454                       # number of LoadLockedReq accesses(hits+misses)
system.cpu.dcache.LoadLockedReq_miss_rate::.cpu.data     0.000252                       # miss rate for LoadLockedReq accesses
system.cpu.dcache.LoadLockedReq_miss_rate::total     0.000252                       # miss rate for LoadLockedReq accesses
system.cpu.dcache.LoadLockedReq_avg_miss_latency::.cpu.data 78874.574830                       # average LoadLockedReq miss latency
system.cpu.dcache.LoadLockedReq_avg_miss_latency::total 78874.574830                       # average LoadLockedReq miss latency
system.cpu.dcache.LoadLockedReq_mshr_hits::.cpu.data            4                       # number of LoadLockedReq MSHR hits
system.cpu.dcache.LoadLockedReq_mshr_hits::total            4                       # number of LoadLockedReq MSHR hits
system.cpu.dcache.LoadLockedReq_mshr_misses::.cpu.data         2348                       # number of LoadLockedReq MSHR misses
system.cpu.dcache.LoadLockedReq_mshr_misses::total         2348                       # number of LoadLockedReq MSHR misses
system.cpu.dcache.LoadLockedReq_mshr_miss_latency::.cpu.data    182959500                       # number of LoadLockedReq MSHR miss cycles
system.cpu.dcache.LoadLockedReq_mshr_miss_latency::total    182959500                       # number of LoadLockedReq MSHR miss cycles
system.cpu.dcache.LoadLockedReq_mshr_miss_rate::.cpu.data     0.000251                       # mshr miss rate for LoadLockedReq accesses
system.cpu.dcache.LoadLockedReq_mshr_miss_rate::total     0.000251                       # mshr miss rate for LoadLockedReq accesses
system.cpu.dcache.LoadLockedReq_avg_mshr_miss_latency::.cpu.data 77921.422487                       # average LoadLockedReq mshr miss latency
system.cpu.dcache.LoadLockedReq_avg_mshr_miss_latency::total 77921.422487                       # average LoadLockedReq mshr miss latency
system.cpu.dcache.StoreCondReq_hits::.cpu.data      9336426                       # number of StoreCondReq hits
system.cpu.dcache.StoreCondReq_hits::total      9336426                       # number of StoreCondReq hits
system.cpu.dcache.StoreCondReq_accesses::.cpu.data      9336426                       # number of StoreCondReq accesses(hits+misses)
system.cpu.dcache.StoreCondReq_accesses::total      9336426                       # number of StoreCondReq accesses(hits+misses)
system.cpu.dcache.tags.pwrStateResidencyTicks::UNDEFINED 278367696000                       # Cumulative time (in ticks) in various power states
system.cpu.dcache.tags.tagsinuse                 1024                       # Cycle average of tags in use
system.cpu.dcache.tags.total_refs           153371821                       # Total number of references to valid blocks.
system.cpu.dcache.tags.sampled_refs            338114                       # Sample count of references to valid blocks.
system.cpu.dcache.tags.avg_refs            453.609791                       # Average number of references to valid blocks.
system.cpu.dcache.tags.warmup_cycle                 0                       # Cycle when the warmup percentage was hit.
system.cpu.dcache.tags.occ_blocks::.cpu.data         1024                       # Average occupied blocks per requestor
system.cpu.dcache.tags.occ_percent::.cpu.data            1                       # Average percentage of cache occupancy
system.cpu.dcache.tags.occ_percent::total            1                       # Average percentage of cache occupancy
system.cpu.dcache.tags.occ_task_id_blocks::1024         1024                       # Occupied blocks per task id
system.cpu.dcache.tags.age_task_id_blocks_1024::0            4                       # Occupied blocks per task id
system.cpu.dcache.tags.age_task_id_blocks_1024::1           41                       # Occupied blocks per task id
system.cpu.dcache.tags.age_task_id_blocks_1024::2          640                       # Occupied blocks per task id
system.cpu.dcache.tags.age_task_id_blocks_1024::3          318                       # Occupied blocks per task id
system.cpu.dcache.tags.age_task_id_blocks_1024::4           21                       # Occupied blocks per task id
system.cpu.dcache.tags.occ_task_id_percent::1024            1                       # Percentage of cache occupancy per task id
system.cpu.dcache.tags.tag_accesses         307102864                       # Number of tag accesses
system.cpu.dcache.tags.data_accesses        307102864                       # Number of data accesses

---------- End Simulation Statistics   ----------
