
---------- Begin Simulation Statistics ----------
final_tick                               2542016850500                       # Number of ticks from beginning of simulation (restored from checkpoints and never reset)
host_inst_rate                                 216511                       # Simulator instruction rate (inst/s)
host_mem_usage                                 740740                       # Number of bytes of host memory used
host_op_rate                                   216510                       # Simulator op (including micro ops) rate (op/s)
host_seconds                                    19.39                       # Real time elapsed on the host
host_tick_rate                              619180751                       # Simulator tick rate (ticks/s)
sim_freq                                 1000000000000                       # Frequency of simulated ticks
sim_insts                                     4198497                       # Number of instructions simulated
sim_ops                                       4198497                       # Number of ops (including micro ops) simulated
sim_seconds                                  0.012007                       # Number of seconds simulated
sim_ticks                                 12007005500                       # Number of ticks simulated
system.cpu.branchPred.BTBCorrect                    0                       # Number of correct BTB predictions (this stat may not work properly.
system.cpu.branchPred.BTBHitPct             46.777431                       # BTB Hit Percentage
system.cpu.branchPred.BTBHits                  417867                       # Number of BTB hits
system.cpu.branchPred.BTBLookups               893309                       # Number of BTB lookups
system.cpu.branchPred.RASInCorrect               2352                       # Number of incorrect RAS predictions.
system.cpu.branchPred.condIncorrect             93713                       # Number of conditional branches incorrect
system.cpu.branchPred.condPredicted            817188                       # Number of conditional branches predicted
system.cpu.branchPred.indirectHits              52998                       # Number of indirect target hits.
system.cpu.branchPred.indirectLookups          279583                       # Number of indirect predictor lookups.
system.cpu.branchPred.indirectMisses           226585                       # Number of indirect misses.
system.cpu.branchPred.lookups                  995322                       # Number of BP lookups
system.cpu.branchPred.usedRAS                   66076                       # Number of times the RAS was used to get a target.
system.cpu.branchPredindirectMispredicted        26969                       # Number of mispredicted indirect branches.
system.cpu.committedInsts                     4198497                       # Number of instructions committed
system.cpu.committedOps                       4198497                       # Number of ops (including micro ops) committed
system.cpu.cpi                               5.716481                       # CPI: cycles per instruction
system.cpu.discardedOps                        200744                       # Number of ops (including micro ops) which were discarded before commit
system.cpu.dtb.data_accesses                   609247                       # DTB accesses
system.cpu.dtb.data_acv                           130                       # DTB access violations
system.cpu.dtb.data_hits                      1457066                       # DTB hits
system.cpu.dtb.data_misses                       7345                       # DTB misses
system.cpu.dtb.fetch_accesses                       0                       # ITB accesses
system.cpu.dtb.fetch_acv                            0                       # ITB acv
system.cpu.dtb.fetch_hits                           0                       # ITB hits
system.cpu.dtb.fetch_misses                         0                       # ITB misses
system.cpu.dtb.read_accesses                   407562                       # DTB read accesses
system.cpu.dtb.read_acv                            43                       # DTB read access violations
system.cpu.dtb.read_hits                       854029                       # DTB read hits
system.cpu.dtb.read_misses                       6546                       # DTB read misses
system.cpu.dtb.write_accesses                  201685                       # DTB write accesses
system.cpu.dtb.write_acv                           87                       # DTB write access violations
system.cpu.dtb.write_hits                      603037                       # DTB write hits
system.cpu.dtb.write_misses                       799                       # DTB write misses
system.cpu.fetch2.amo_instructions                  0                       # Number of memory atomic instructions successfully decoded
system.cpu.fetch2.fp_instructions               18027                       # Number of floating point instructions successfully decoded
system.cpu.fetch2.int_instructions            3434776                       # Number of integer instructions successfully decoded
system.cpu.fetch2.load_instructions           1055164                       # Number of memory load instructions successfully decoded
system.cpu.fetch2.store_instructions           665404                       # Number of memory store instructions successfully decoded
system.cpu.fetch2.vec_instructions                  0                       # Number of SIMD instructions successfully decoded
system.cpu.idleCycles                        16815263                       # Total number of cycles that the object has spent stopped
system.cpu.ipc                               0.174933                       # IPC: instructions per cycle
system.cpu.itb.data_accesses                        0                       # DTB accesses
system.cpu.itb.data_acv                             0                       # DTB access violations
system.cpu.itb.data_hits                            0                       # DTB hits
system.cpu.itb.data_misses                          0                       # DTB misses
system.cpu.itb.fetch_accesses                 1027021                       # ITB accesses
system.cpu.itb.fetch_acv                          786                       # ITB acv
system.cpu.itb.fetch_hits                     1020161                       # ITB hits
system.cpu.itb.fetch_misses                      6860                       # ITB misses
system.cpu.itb.read_accesses                        0                       # DTB read accesses
system.cpu.itb.read_acv                             0                       # DTB read access violations
system.cpu.itb.read_hits                            0                       # DTB read hits
system.cpu.itb.read_misses                          0                       # DTB read misses
system.cpu.itb.write_accesses                       0                       # DTB write accesses
system.cpu.itb.write_acv                            0                       # DTB write access violations
system.cpu.itb.write_hits                           0                       # DTB write hits
system.cpu.itb.write_misses                         0                       # DTB write misses
system.cpu.kern.callpal::swpctx                   574      9.42%      9.42% # number of callpals executed
system.cpu.kern.callpal::tbi                       25      0.41%      9.83% # number of callpals executed
system.cpu.kern.callpal::swpipl                  4225     69.36%     79.20% # number of callpals executed
system.cpu.kern.callpal::rdps                      50      0.82%     80.02% # number of callpals executed
system.cpu.kern.callpal::wrusp                      4      0.07%     80.09% # number of callpals executed
system.cpu.kern.callpal::rdusp                      3      0.05%     80.13% # number of callpals executed
system.cpu.kern.callpal::rti                      897     14.73%     94.86% # number of callpals executed
system.cpu.kern.callpal::callsys                  235      3.86%     98.72% # number of callpals executed
system.cpu.kern.callpal::imb                       78      1.28%    100.00% # number of callpals executed
system.cpu.kern.callpal::total                   6091                       # number of callpals executed
system.cpu.kern.inst.arm                            0                       # number of arm instructions executed
system.cpu.kern.inst.hwrei                      14435                       # number of hwrei instructions executed
system.cpu.kern.inst.quiesce                        9                       # number of quiesce instructions executed
system.cpu.kern.ipl_count::0                     2434     47.35%     47.35% # number of times we switched to this ipl
system.cpu.kern.ipl_count::21                       5      0.10%     47.45% # number of times we switched to this ipl
system.cpu.kern.ipl_count::22                      13      0.25%     47.70% # number of times we switched to this ipl
system.cpu.kern.ipl_count::31                    2688     52.30%    100.00% # number of times we switched to this ipl
system.cpu.kern.ipl_count::total                 5140                       # number of times we switched to this ipl
system.cpu.kern.ipl_good::0                      2421     49.81%     49.81% # number of times we switched to this ipl from a different ipl
system.cpu.kern.ipl_good::21                        5      0.10%     49.92% # number of times we switched to this ipl from a different ipl
system.cpu.kern.ipl_good::22                       13      0.27%     50.19% # number of times we switched to this ipl from a different ipl
system.cpu.kern.ipl_good::31                     2421     49.81%    100.00% # number of times we switched to this ipl from a different ipl
system.cpu.kern.ipl_good::total                  4860                       # number of times we switched to this ipl from a different ipl
system.cpu.kern.ipl_ticks::0              11074467500     92.20%     92.20% # number of cycles we spent at this ipl
system.cpu.kern.ipl_ticks::21                 8896000      0.07%     92.28% # number of cycles we spent at this ipl
system.cpu.kern.ipl_ticks::22                18872000      0.16%     92.43% # number of cycles we spent at this ipl
system.cpu.kern.ipl_ticks::31               908697000      7.57%    100.00% # number of cycles we spent at this ipl
system.cpu.kern.ipl_ticks::total          12010932500                       # number of cycles we spent at this ipl
system.cpu.kern.ipl_used::0                  0.994659                       # fraction of swpipl calls that actually changed the ipl
system.cpu.kern.ipl_used::21                        1                       # fraction of swpipl calls that actually changed the ipl
system.cpu.kern.ipl_used::22                        1                       # fraction of swpipl calls that actually changed the ipl
system.cpu.kern.ipl_used::31                 0.900670                       # fraction of swpipl calls that actually changed the ipl
system.cpu.kern.ipl_used::total              0.945525                       # fraction of swpipl calls that actually changed the ipl
system.cpu.kern.mode_good::kernel                 867                      
system.cpu.kern.mode_good::user                   867                      
system.cpu.kern.mode_good::idle                     0                      
system.cpu.kern.mode_switch::kernel              1471                       # number of protection mode switches
system.cpu.kern.mode_switch::user                 867                       # number of protection mode switches
system.cpu.kern.mode_switch::idle                   0                       # number of protection mode switches
system.cpu.kern.mode_switch_good::kernel     0.589395                       # fraction of useful protection mode switches
system.cpu.kern.mode_switch_good::user              1                       # fraction of useful protection mode switches
system.cpu.kern.mode_switch_good::idle            nan                       # fraction of useful protection mode switches
system.cpu.kern.mode_switch_good::total      0.741660                       # fraction of useful protection mode switches
system.cpu.kern.mode_ticks::kernel         8086907000     67.33%     67.33% # number of ticks spent at the given mode
system.cpu.kern.mode_ticks::user           3924025500     32.67%    100.00% # number of ticks spent at the given mode
system.cpu.kern.mode_ticks::idle                    0      0.00%    100.00% # number of ticks spent at the given mode
system.cpu.kern.swap_context                      574                       # number of times the context was actually changed
system.cpu.numCycles                         24000629                       # number of cpu cycles simulated
system.cpu.numFetchSuspends                         9                       # Number of times Execute suspended instruction fetching
system.cpu.numWorkItemsCompleted                    0                       # number of work items this cpu completed
system.cpu.numWorkItemsStarted                      0                       # number of work items this cpu started
system.cpu.op_class_0::No_OpClass               85433      2.03%      2.03% # Class of committed instruction
system.cpu.op_class_0::IntAlu                 2542953     60.57%     62.60% # Class of committed instruction
system.cpu.op_class_0::IntMult                   3684      0.09%     62.69% # Class of committed instruction
system.cpu.op_class_0::IntDiv                       0      0.00%     62.69% # Class of committed instruction
system.cpu.op_class_0::FloatAdd                  8286      0.20%     62.89% # Class of committed instruction
system.cpu.op_class_0::FloatCmp                     0      0.00%     62.89% # Class of committed instruction
system.cpu.op_class_0::FloatCvt                     0      0.00%     62.89% # Class of committed instruction
system.cpu.op_class_0::FloatMult                    0      0.00%     62.89% # Class of committed instruction
system.cpu.op_class_0::FloatMultAcc                 0      0.00%     62.89% # Class of committed instruction
system.cpu.op_class_0::FloatDiv                  1593      0.04%     62.93% # Class of committed instruction
system.cpu.op_class_0::FloatMisc                    0      0.00%     62.93% # Class of committed instruction
system.cpu.op_class_0::FloatSqrt                    0      0.00%     62.93% # Class of committed instruction
system.cpu.op_class_0::SimdAdd                      0      0.00%     62.93% # Class of committed instruction
system.cpu.op_class_0::SimdAddAcc                   0      0.00%     62.93% # Class of committed instruction
system.cpu.op_class_0::SimdAlu                      0      0.00%     62.93% # Class of committed instruction
system.cpu.op_class_0::SimdCmp                      0      0.00%     62.93% # Class of committed instruction
system.cpu.op_class_0::SimdCvt                      0      0.00%     62.93% # Class of committed instruction
system.cpu.op_class_0::SimdMisc                     0      0.00%     62.93% # Class of committed instruction
system.cpu.op_class_0::SimdMult                     0      0.00%     62.93% # Class of committed instruction
system.cpu.op_class_0::SimdMultAcc                  0      0.00%     62.93% # Class of committed instruction
system.cpu.op_class_0::SimdShift                    0      0.00%     62.93% # Class of committed instruction
system.cpu.op_class_0::SimdShiftAcc                 0      0.00%     62.93% # Class of committed instruction
system.cpu.op_class_0::SimdDiv                      0      0.00%     62.93% # Class of committed instruction
system.cpu.op_class_0::SimdSqrt                     0      0.00%     62.93% # Class of committed instruction
system.cpu.op_class_0::SimdFloatAdd                 0      0.00%     62.93% # Class of committed instruction
system.cpu.op_class_0::SimdFloatAlu                 0      0.00%     62.93% # Class of committed instruction
system.cpu.op_class_0::SimdFloatCmp                 0      0.00%     62.93% # Class of committed instruction
system.cpu.op_class_0::SimdFloatCvt                 0      0.00%     62.93% # Class of committed instruction
system.cpu.op_class_0::SimdFloatDiv                 0      0.00%     62.93% # Class of committed instruction
system.cpu.op_class_0::SimdFloatMisc                0      0.00%     62.93% # Class of committed instruction
system.cpu.op_class_0::SimdFloatMult                0      0.00%     62.93% # Class of committed instruction
system.cpu.op_class_0::SimdFloatMultAcc             0      0.00%     62.93% # Class of committed instruction
system.cpu.op_class_0::SimdFloatSqrt                0      0.00%     62.93% # Class of committed instruction
system.cpu.op_class_0::SimdReduceAdd                0      0.00%     62.93% # Class of committed instruction
system.cpu.op_class_0::SimdReduceAlu                0      0.00%     62.93% # Class of committed instruction
system.cpu.op_class_0::SimdReduceCmp                0      0.00%     62.93% # Class of committed instruction
system.cpu.op_class_0::SimdFloatReduceAdd            0      0.00%     62.93% # Class of committed instruction
system.cpu.op_class_0::SimdFloatReduceCmp            0      0.00%     62.93% # Class of committed instruction
system.cpu.op_class_0::SimdAes                      0      0.00%     62.93% # Class of committed instruction
system.cpu.op_class_0::SimdAesMix                   0      0.00%     62.93% # Class of committed instruction
system.cpu.op_class_0::SimdSha1Hash                 0      0.00%     62.93% # Class of committed instruction
system.cpu.op_class_0::SimdSha1Hash2                0      0.00%     62.93% # Class of committed instruction
system.cpu.op_class_0::SimdSha256Hash               0      0.00%     62.93% # Class of committed instruction
system.cpu.op_class_0::SimdSha256Hash2              0      0.00%     62.93% # Class of committed instruction
system.cpu.op_class_0::SimdShaSigma2                0      0.00%     62.93% # Class of committed instruction
system.cpu.op_class_0::SimdShaSigma3                0      0.00%     62.93% # Class of committed instruction
system.cpu.op_class_0::SimdPredAlu                  0      0.00%     62.93% # Class of committed instruction
system.cpu.op_class_0::MemRead                 839944     20.01%     82.93% # Class of committed instruction
system.cpu.op_class_0::MemWrite                592948     14.12%     97.05% # Class of committed instruction
system.cpu.op_class_0::FloatMemRead              9988      0.24%     97.29% # Class of committed instruction
system.cpu.op_class_0::FloatMemWrite             8788      0.21%     97.50% # Class of committed instruction
system.cpu.op_class_0::IprAccess               104880      2.50%    100.00% # Class of committed instruction
system.cpu.op_class_0::InstPrefetch                 0      0.00%    100.00% # Class of committed instruction
system.cpu.op_class_0::total                  4198497                       # Class of committed instruction
system.cpu.quiesceCycles                        13382                       # Total number of cycles that CPU has spent quiesced or waiting for an interrupt
system.cpu.tickCycles                         7185366                       # Number of cycles that the object actually ticked
system.disk0.dma_read_bytes                         0                       # Number of bytes transfered via DMA reads (not PRD).
system.disk0.dma_read_full_pages                    0                       # Number of full page size DMA reads (not PRD).
system.disk0.dma_read_txs                           0                       # Number of DMA read transactions (not PRD).
system.disk0.dma_write_bytes                    12288                       # Number of bytes transfered via DMA writes.
system.disk0.dma_write_full_pages                   0                       # Number of full page size DMA writes.
system.disk0.dma_write_txs                          3                       # Number of DMA write transactions.
system.disk2.dma_read_bytes                         0                       # Number of bytes transfered via DMA reads (not PRD).
system.disk2.dma_read_full_pages                    0                       # Number of full page size DMA reads (not PRD).
system.disk2.dma_read_txs                           0                       # Number of DMA read transactions (not PRD).
system.disk2.dma_write_bytes                        0                       # Number of bytes transfered via DMA writes.
system.disk2.dma_write_full_pages                   0                       # Number of full page size DMA writes.
system.disk2.dma_write_txs                          0                       # Number of DMA write transactions.
system.membus.snoop_filter.hit_multi_requests          437                       # Number of requests hitting in the snoop filter with multiple (>1) holders of the requested data.
system.membus.snoop_filter.hit_multi_snoops            0                       # Number of snoops hitting in the snoop filter with multiple (>1) holders of the requested data.
system.membus.snoop_filter.hit_single_requests       156982                       # Number of requests hitting in the snoop filter with a single holder of the requested data.
system.membus.snoop_filter.hit_single_snoops            0                       # Number of snoops hitting in the snoop filter with a single holder of the requested data.
system.membus.snoop_filter.tot_requests        315572                       # Total number of requests made to the snoop filter.
system.membus.snoop_filter.tot_snoops               0                       # Total number of snoops made to the snoop filter.
system.tsunami.ethernet.coalescedRxDesc           nan                       # average number of RxDesc's coalesced into each post
system.tsunami.ethernet.coalescedRxIdle           nan                       # average number of RxIdle's coalesced into each post
system.tsunami.ethernet.coalescedRxOk             nan                       # average number of RxOk's coalesced into each post
system.tsunami.ethernet.coalescedRxOrn            nan                       # average number of RxOrn's coalesced into each post
system.tsunami.ethernet.coalescedSwi              nan                       # average number of Swi's coalesced into each post
system.tsunami.ethernet.coalescedTotal            nan                       # average number of interrupts coalesced into each post
system.tsunami.ethernet.coalescedTxDesc           nan                       # average number of TxDesc's coalesced into each post
system.tsunami.ethernet.coalescedTxIdle           nan                       # average number of TxIdle's coalesced into each post
system.tsunami.ethernet.coalescedTxOk             nan                       # average number of TxOk's coalesced into each post
system.tsunami.ethernet.descDMAReads                0                       # Number of descriptors the device read w/ DMA
system.tsunami.ethernet.descDMAWrites               0                       # Number of descriptors the device wrote w/ DMA
system.tsunami.ethernet.descDmaReadBytes            0                       # number of descriptor bytes read w/ DMA
system.tsunami.ethernet.descDmaWriteBytes            0                       # number of descriptor bytes write w/ DMA
system.tsunami.ethernet.droppedPackets              0                       # number of packets dropped
system.tsunami.ethernet.postedInterrupts            0                       # number of posts to CPU
system.tsunami.ethernet.postedRxDesc                0                       # number of RxDesc interrupts posted to CPU
system.tsunami.ethernet.postedRxIdle                0                       # number of rxIdle interrupts posted to CPU
system.tsunami.ethernet.postedRxOk                  0                       # number of RxOk interrupts posted to CPU
system.tsunami.ethernet.postedRxOrn                 0                       # number of RxOrn posted to CPU
system.tsunami.ethernet.postedSwi                   0                       # number of software interrupts posted to CPU
system.tsunami.ethernet.postedTxDesc                0                       # number of TxDesc interrupts posted to CPU
system.tsunami.ethernet.postedTxIdle                0                       # number of TxIdle interrupts posted to CPU
system.tsunami.ethernet.postedTxOk                  0                       # number of TxOk interrupts posted to CPU
system.tsunami.ethernet.totalRxDesc                 0                       # total number of RxDesc written to ISR
system.tsunami.ethernet.totalRxIdle                 0                       # total number of RxIdle written to ISR
system.tsunami.ethernet.totalRxOk                   0                       # total number of RxOk written to ISR
system.tsunami.ethernet.totalRxOrn                  0                       # total number of RxOrn written to ISR
system.tsunami.ethernet.totalSwi                    0                       # total number of Swi written to ISR
system.tsunami.ethernet.totalTxDesc                 0                       # total number of TxDesc written to ISR
system.tsunami.ethernet.totalTxIdle                 0                       # total number of TxIdle written to ISR
system.tsunami.ethernet.totalTxOk                   0                       # total number of TxOk written to ISR
system.bridge.pwrStateResidencyTicks::UNDEFINED 2542016850500                       # Cumulative time (in ticks) in various power states
system.voltage_domain.voltage                       1                       # Voltage in Volts
system.iocache.pwrStateResidencyTicks::UNDEFINED 2542016850500                       # Cumulative time (in ticks) in various power states
system.iocache.demand_misses::.tsunami.ide          195                       # number of demand (read+write) misses
system.iocache.demand_misses::total               195                       # number of demand (read+write) misses
system.iocache.overall_misses::.tsunami.ide          195                       # number of overall misses
system.iocache.overall_misses::total              195                       # number of overall misses
system.iocache.demand_miss_latency::.tsunami.ide     22749457                       # number of demand (read+write) miss cycles
system.iocache.demand_miss_latency::total     22749457                       # number of demand (read+write) miss cycles
system.iocache.overall_miss_latency::.tsunami.ide     22749457                       # number of overall miss cycles
system.iocache.overall_miss_latency::total     22749457                       # number of overall miss cycles
system.iocache.demand_accesses::.tsunami.ide          195                       # number of demand (read+write) accesses
system.iocache.demand_accesses::total             195                       # number of demand (read+write) accesses
system.iocache.overall_accesses::.tsunami.ide          195                       # number of overall (read+write) accesses
system.iocache.overall_accesses::total            195                       # number of overall (read+write) accesses
system.iocache.demand_miss_rate::.tsunami.ide            1                       # miss rate for demand accesses
system.iocache.demand_miss_rate::total              1                       # miss rate for demand accesses
system.iocache.overall_miss_rate::.tsunami.ide            1                       # miss rate for overall accesses
system.iocache.overall_miss_rate::total             1                       # miss rate for overall accesses
system.iocache.demand_avg_miss_latency::.tsunami.ide 116663.882051                       # average overall miss latency
system.iocache.demand_avg_miss_latency::total 116663.882051                       # average overall miss latency
system.iocache.overall_avg_miss_latency::.tsunami.ide 116663.882051                       # average overall miss latency
system.iocache.overall_avg_miss_latency::total 116663.882051                       # average overall miss latency
system.iocache.blocked_cycles::no_mshrs             0                       # number of cycles access was blocked
system.iocache.blocked_cycles::no_targets            0                       # number of cycles access was blocked
system.iocache.blocked::no_mshrs                    0                       # number of cycles access was blocked
system.iocache.blocked::no_targets                  0                       # number of cycles access was blocked
system.iocache.avg_blocked_cycles::no_mshrs          nan                       # average number of cycles each access was blocked
system.iocache.avg_blocked_cycles::no_targets          nan                       # average number of cycles each access was blocked
system.iocache.writebacks::.writebacks            176                       # number of writebacks
system.iocache.writebacks::total                  176                       # number of writebacks
system.iocache.demand_mshr_misses::.tsunami.ide          195                       # number of demand (read+write) MSHR misses
system.iocache.demand_mshr_misses::total          195                       # number of demand (read+write) MSHR misses
system.iocache.overall_mshr_misses::.tsunami.ide          195                       # number of overall MSHR misses
system.iocache.overall_mshr_misses::total          195                       # number of overall MSHR misses
system.iocache.demand_mshr_miss_latency::.tsunami.ide     12989488                       # number of demand (read+write) MSHR miss cycles
system.iocache.demand_mshr_miss_latency::total     12989488                       # number of demand (read+write) MSHR miss cycles
system.iocache.overall_mshr_miss_latency::.tsunami.ide     12989488                       # number of overall MSHR miss cycles
system.iocache.overall_mshr_miss_latency::total     12989488                       # number of overall MSHR miss cycles
system.iocache.demand_mshr_miss_rate::.tsunami.ide            1                       # mshr miss rate for demand accesses
system.iocache.demand_mshr_miss_rate::total            1                       # mshr miss rate for demand accesses
system.iocache.overall_mshr_miss_rate::.tsunami.ide            1                       # mshr miss rate for overall accesses
system.iocache.overall_mshr_miss_rate::total            1                       # mshr miss rate for overall accesses
system.iocache.demand_avg_mshr_miss_latency::.tsunami.ide 66612.758974                       # average overall mshr miss latency
system.iocache.demand_avg_mshr_miss_latency::total 66612.758974                       # average overall mshr miss latency
system.iocache.overall_avg_mshr_miss_latency::.tsunami.ide 66612.758974                       # average overall mshr miss latency
system.iocache.overall_avg_mshr_miss_latency::total 66612.758974                       # average overall mshr miss latency
system.iocache.replacements                       179                       # number of replacements
system.iocache.ReadReq_misses::.tsunami.ide            3                       # number of ReadReq misses
system.iocache.ReadReq_misses::total                3                       # number of ReadReq misses
system.iocache.ReadReq_miss_latency::.tsunami.ide       349497                       # number of ReadReq miss cycles
system.iocache.ReadReq_miss_latency::total       349497                       # number of ReadReq miss cycles
system.iocache.ReadReq_accesses::.tsunami.ide            3                       # number of ReadReq accesses(hits+misses)
system.iocache.ReadReq_accesses::total              3                       # number of ReadReq accesses(hits+misses)
system.iocache.ReadReq_miss_rate::.tsunami.ide            1                       # miss rate for ReadReq accesses
system.iocache.ReadReq_miss_rate::total             1                       # miss rate for ReadReq accesses
system.iocache.ReadReq_avg_miss_latency::.tsunami.ide       116499                       # average ReadReq miss latency
system.iocache.ReadReq_avg_miss_latency::total       116499                       # average ReadReq miss latency
system.iocache.ReadReq_mshr_misses::.tsunami.ide            3                       # number of ReadReq MSHR misses
system.iocache.ReadReq_mshr_misses::total            3                       # number of ReadReq MSHR misses
system.iocache.ReadReq_mshr_miss_latency::.tsunami.ide       199497                       # number of ReadReq MSHR miss cycles
system.iocache.ReadReq_mshr_miss_latency::total       199497                       # number of ReadReq MSHR miss cycles
system.iocache.ReadReq_mshr_miss_rate::.tsunami.ide            1                       # mshr miss rate for ReadReq accesses
system.iocache.ReadReq_mshr_miss_rate::total            1                       # mshr miss rate for ReadReq accesses
system.iocache.ReadReq_avg_mshr_miss_latency::.tsunami.ide        66499                       # average ReadReq mshr miss latency
system.iocache.ReadReq_avg_mshr_miss_latency::total        66499                       # average ReadReq mshr miss latency
system.iocache.WriteLineReq_misses::.tsunami.ide          192                       # number of WriteLineReq misses
system.iocache.WriteLineReq_misses::total          192                       # number of WriteLineReq misses
system.iocache.WriteLineReq_miss_latency::.tsunami.ide     22399960                       # number of WriteLineReq miss cycles
system.iocache.WriteLineReq_miss_latency::total     22399960                       # number of WriteLineReq miss cycles
system.iocache.WriteLineReq_accesses::.tsunami.ide          192                       # number of WriteLineReq accesses(hits+misses)
system.iocache.WriteLineReq_accesses::total          192                       # number of WriteLineReq accesses(hits+misses)
system.iocache.WriteLineReq_miss_rate::.tsunami.ide            1                       # miss rate for WriteLineReq accesses
system.iocache.WriteLineReq_miss_rate::total            1                       # miss rate for WriteLineReq accesses
system.iocache.WriteLineReq_avg_miss_latency::.tsunami.ide 116666.458333                       # average WriteLineReq miss latency
system.iocache.WriteLineReq_avg_miss_latency::total 116666.458333                       # average WriteLineReq miss latency
system.iocache.WriteLineReq_mshr_misses::.tsunami.ide          192                       # number of WriteLineReq MSHR misses
system.iocache.WriteLineReq_mshr_misses::total          192                       # number of WriteLineReq MSHR misses
system.iocache.WriteLineReq_mshr_miss_latency::.tsunami.ide     12789991                       # number of WriteLineReq MSHR miss cycles
system.iocache.WriteLineReq_mshr_miss_latency::total     12789991                       # number of WriteLineReq MSHR miss cycles
system.iocache.WriteLineReq_mshr_miss_rate::.tsunami.ide            1                       # mshr miss rate for WriteLineReq accesses
system.iocache.WriteLineReq_mshr_miss_rate::total            1                       # mshr miss rate for WriteLineReq accesses
system.iocache.WriteLineReq_avg_mshr_miss_latency::.tsunami.ide 66614.536458                       # average WriteLineReq mshr miss latency
system.iocache.WriteLineReq_avg_mshr_miss_latency::total 66614.536458                       # average WriteLineReq mshr miss latency
system.iocache.tags.pwrStateResidencyTicks::UNDEFINED 2542016850500                       # Cumulative time (in ticks) in various power states
system.iocache.tags.tagsinuse                3.299763                       # Cycle average of tags in use
system.iocache.tags.total_refs                    179                       # Total number of references to valid blocks.
system.iocache.tags.sampled_refs                  179                       # Sample count of references to valid blocks.
system.iocache.tags.avg_refs                        1                       # Average number of references to valid blocks.
system.iocache.tags.warmup_cycle         2539539506000                       # Cycle when the warmup percentage was hit.
system.iocache.tags.occ_blocks::.tsunami.ide     3.299763                       # Average occupied blocks per requestor
system.iocache.tags.occ_percent::.tsunami.ide     0.206235                       # Average percentage of cache occupancy
system.iocache.tags.occ_percent::total       0.206235                       # Average percentage of cache occupancy
system.iocache.tags.occ_task_id_blocks::1023           16                       # Occupied blocks per task id
system.iocache.tags.age_task_id_blocks_1023::3           16                       # Occupied blocks per task id
system.iocache.tags.occ_task_id_percent::1023            1                       # Percentage of cache occupancy per task id
system.iocache.tags.tag_accesses                 1755                       # Number of tag accesses
system.iocache.tags.data_accesses                1755                       # Number of data accesses
system.membus.pwrStateResidencyTicks::UNDEFINED 2542016850500                       # Cumulative time (in ticks) in various power states
system.membus.trans_dist::ReadReq                 108                       # Transaction distribution
system.membus.trans_dist::ReadResp             129545                       # Transaction distribution
system.membus.trans_dist::WriteReq                100                       # Transaction distribution
system.membus.trans_dist::WriteResp               100                       # Transaction distribution
system.membus.trans_dist::WritebackDirty        34926                       # Transaction distribution
system.membus.trans_dist::WritebackClean        87845                       # Transaction distribution
system.membus.trans_dist::CleanEvict            34190                       # Transaction distribution
system.membus.trans_dist::UpgradeReq               17                       # Transaction distribution
system.membus.trans_dist::ReadExReq             28963                       # Transaction distribution
system.membus.trans_dist::ReadExResp            28963                       # Transaction distribution
system.membus.trans_dist::ReadCleanReq          88436                       # Transaction distribution
system.membus.trans_dist::ReadSharedReq         41003                       # Transaction distribution
system.membus.trans_dist::BadAddressError            2                       # Transaction distribution
system.membus.trans_dist::InvalidateReq           192                       # Transaction distribution
system.membus.pkt_count_system.iocache.mem_side::system.mem_ctrls.port          374                       # Packet count per connected master and slave (bytes)
system.membus.pkt_count_system.iocache.mem_side::total          374                       # Packet count per connected master and slave (bytes)
system.membus.pkt_count_system.cpu.icache.mem_side::system.mem_ctrls.port       264655                       # Packet count per connected master and slave (bytes)
system.membus.pkt_count_system.cpu.icache.mem_side::total       264655                       # Packet count per connected master and slave (bytes)
system.membus.pkt_count_system.cpu.dcache.mem_side::system.bridge.slave          416                       # Packet count per connected master and slave (bytes)
system.membus.pkt_count_system.cpu.dcache.mem_side::system.mem_ctrls.port       208876                       # Packet count per connected master and slave (bytes)
system.membus.pkt_count_system.cpu.dcache.mem_side::system.membus.badaddr_responder.pio            4                       # Packet count per connected master and slave (bytes)
system.membus.pkt_count_system.cpu.dcache.mem_side::total       209296                       # Packet count per connected master and slave (bytes)
system.membus.pkt_count::total                 474325                       # Packet count per connected master and slave (bytes)
system.membus.pkt_size_system.iocache.mem_side::system.mem_ctrls.port        11264                       # Cumulative packet size per connected master and slave (bytes)
system.membus.pkt_size_system.iocache.mem_side::total        11264                       # Cumulative packet size per connected master and slave (bytes)
system.membus.pkt_size_system.cpu.icache.mem_side::system.mem_ctrls.port     11278016                       # Cumulative packet size per connected master and slave (bytes)
system.membus.pkt_size_system.cpu.icache.mem_side::total     11278016                       # Cumulative packet size per connected master and slave (bytes)
system.membus.pkt_size_system.cpu.dcache.mem_side::system.bridge.slave          441                       # Cumulative packet size per connected master and slave (bytes)
system.membus.pkt_size_system.cpu.dcache.mem_side::system.mem_ctrls.port      6701504                       # Cumulative packet size per connected master and slave (bytes)
system.membus.pkt_size_system.cpu.dcache.mem_side::total      6701945                       # Cumulative packet size per connected master and slave (bytes)
system.membus.pkt_size::total                17991225                       # Cumulative packet size per connected master and slave (bytes)
system.membus.snoops                               65                       # Total snoops (count)
system.membus.snoopTraffic                       4160                       # Total snoop traffic (bytes)
system.membus.snoop_fanout::samples            158819                       # Request fanout histogram
system.membus.snoop_fanout::mean             0.002758                       # Request fanout histogram
system.membus.snoop_fanout::stdev            0.052443                       # Request fanout histogram
system.membus.snoop_fanout::underflows              0      0.00%      0.00% # Request fanout histogram
system.membus.snoop_fanout::0                  158381     99.72%     99.72% # Request fanout histogram
system.membus.snoop_fanout::1                     438      0.28%    100.00% # Request fanout histogram
system.membus.snoop_fanout::2                       0      0.00%    100.00% # Request fanout histogram
system.membus.snoop_fanout::3                       0      0.00%    100.00% # Request fanout histogram
system.membus.snoop_fanout::overflows               0      0.00%    100.00% # Request fanout histogram
system.membus.snoop_fanout::min_value               0                       # Request fanout histogram
system.membus.snoop_fanout::max_value               1                       # Request fanout histogram
system.membus.snoop_fanout::total              158819                       # Request fanout histogram
system.membus.reqLayer0.occupancy              345000                       # Layer occupancy (ticks)
system.membus.reqLayer0.utilization               0.0                       # Layer utilization (%)
system.membus.reqLayer1.occupancy           829312033                       # Layer occupancy (ticks)
system.membus.reqLayer1.utilization               6.9                       # Layer utilization (%)
system.membus.reqLayer2.occupancy                2500                       # Layer occupancy (ticks)
system.membus.reqLayer2.utilization               0.0                       # Layer utilization (%)
system.membus.respLayer1.occupancy              17997                       # Layer occupancy (ticks)
system.membus.respLayer1.utilization              0.0                       # Layer utilization (%)
system.membus.respLayer3.occupancy          376380000                       # Layer occupancy (ticks)
system.membus.respLayer3.utilization              3.1                       # Layer utilization (%)
system.membus.badaddr_responder.pwrStateResidencyTicks::UNDEFINED 2542016850500                       # Cumulative time (in ticks) in various power states
system.membus.respLayer2.occupancy          468861500                       # Layer occupancy (ticks)
system.membus.respLayer2.utilization              3.9                       # Layer utilization (%)
system.clk_domain.clock                          1000                       # Clock period in ticks
system.tsunami.fake_uart1.pwrStateResidencyTicks::UNDEFINED 2542016850500                       # Cumulative time (in ticks) in various power states
system.tsunami.fake_uart2.pwrStateResidencyTicks::UNDEFINED 2542016850500                       # Cumulative time (in ticks) in various power states
system.tsunami.fake_uart3.pwrStateResidencyTicks::UNDEFINED 2542016850500                       # Cumulative time (in ticks) in various power states
system.tsunami.fake_uart4.pwrStateResidencyTicks::UNDEFINED 2542016850500                       # Cumulative time (in ticks) in various power states
system.tsunami.fake_ppc.pwrStateResidencyTicks::UNDEFINED 2542016850500                       # Cumulative time (in ticks) in various power states
system.tsunami.cchip.pwrStateResidencyTicks::UNDEFINED 2542016850500                       # Cumulative time (in ticks) in various power states
system.tsunami.io.pwrStateResidencyTicks::UNDEFINED 2542016850500                       # Cumulative time (in ticks) in various power states
system.tsunami.pchip.pwrStateResidencyTicks::UNDEFINED 2542016850500                       # Cumulative time (in ticks) in various power states
system.tsunami.fake_ata1.pwrStateResidencyTicks::UNDEFINED 2542016850500                       # Cumulative time (in ticks) in various power states
system.tsunami.fake_ata0.pwrStateResidencyTicks::UNDEFINED 2542016850500                       # Cumulative time (in ticks) in various power states
system.tsunami.backdoor.pwrStateResidencyTicks::UNDEFINED 2542016850500                       # Cumulative time (in ticks) in various power states
system.tsunami.fake_pnp_read3.pwrStateResidencyTicks::UNDEFINED 2542016850500                       # Cumulative time (in ticks) in various power states
system.tsunami.fake_pnp_read2.pwrStateResidencyTicks::UNDEFINED 2542016850500                       # Cumulative time (in ticks) in various power states
system.tsunami.fake_pnp_read1.pwrStateResidencyTicks::UNDEFINED 2542016850500                       # Cumulative time (in ticks) in various power states
system.tsunami.fake_pnp_read0.pwrStateResidencyTicks::UNDEFINED 2542016850500                       # Cumulative time (in ticks) in various power states
system.tsunami.fake_pnp_read7.pwrStateResidencyTicks::UNDEFINED 2542016850500                       # Cumulative time (in ticks) in various power states
system.tsunami.fake_pnp_read6.pwrStateResidencyTicks::UNDEFINED 2542016850500                       # Cumulative time (in ticks) in various power states
system.tsunami.fake_pnp_read5.pwrStateResidencyTicks::UNDEFINED 2542016850500                       # Cumulative time (in ticks) in various power states
system.tsunami.fake_pnp_read4.pwrStateResidencyTicks::UNDEFINED 2542016850500                       # Cumulative time (in ticks) in various power states
system.tsunami.fake_pnp_write.pwrStateResidencyTicks::UNDEFINED 2542016850500                       # Cumulative time (in ticks) in various power states
system.tsunami.fb.pwrStateResidencyTicks::UNDEFINED 2542016850500                       # Cumulative time (in ticks) in various power states
system.tsunami.fake_pnp_addr.pwrStateResidencyTicks::UNDEFINED 2542016850500                       # Cumulative time (in ticks) in various power states
system.tsunami.fake_OROM.pwrStateResidencyTicks::UNDEFINED 2542016850500                       # Cumulative time (in ticks) in various power states
system.tsunami.uart.pwrStateResidencyTicks::UNDEFINED 2542016850500                       # Cumulative time (in ticks) in various power states
system.tsunami.fake_sm_chip.pwrStateResidencyTicks::UNDEFINED 2542016850500                       # Cumulative time (in ticks) in various power states
system.tsunami.ethernet.pwrStateResidencyTicks::UNDEFINED 2542016850500                       # Cumulative time (in ticks) in various power states
system.tsunami.ide.pwrStateResidencyTicks::UNDEFINED 2542016850500                       # Cumulative time (in ticks) in various power states
system.cpu_voltage_domain.voltage                   1                       # Voltage in Volts
system.mem_ctrls.pwrStateResidencyTicks::UNDEFINED 2542016850500                       # Cumulative time (in ticks) in various power states
system.mem_ctrls.bytes_read::.cpu.inst        5655936                       # Number of bytes read from this memory
system.mem_ctrls.bytes_read::.cpu.data        4477504                       # Number of bytes read from this memory
system.mem_ctrls.bytes_read::total           10133440                       # Number of bytes read from this memory
system.mem_ctrls.bytes_inst_read::.cpu.inst      5655936                       # Number of instructions bytes read from this memory
system.mem_ctrls.bytes_inst_read::total       5655936                       # Number of instructions bytes read from this memory
system.mem_ctrls.bytes_written::.writebacks      2235264                       # Number of bytes written to this memory
system.mem_ctrls.bytes_written::total         2235264                       # Number of bytes written to this memory
system.mem_ctrls.num_reads::.cpu.inst           88374                       # Number of read requests responded to by this memory
system.mem_ctrls.num_reads::.cpu.data           69961                       # Number of read requests responded to by this memory
system.mem_ctrls.num_reads::total              158335                       # Number of read requests responded to by this memory
system.mem_ctrls.num_writes::.writebacks        34926                       # Number of write requests responded to by this memory
system.mem_ctrls.num_writes::total              34926                       # Number of write requests responded to by this memory
system.mem_ctrls.bw_read::.cpu.inst         471053003                       # Total read bandwidth from this memory (bytes/s)
system.mem_ctrls.bw_read::.cpu.data         372907633                       # Total read bandwidth from this memory (bytes/s)
system.mem_ctrls.bw_read::total             843960636                       # Total read bandwidth from this memory (bytes/s)
system.mem_ctrls.bw_inst_read::.cpu.inst    471053003                       # Instruction read bandwidth from this memory (bytes/s)
system.mem_ctrls.bw_inst_read::total        471053003                       # Instruction read bandwidth from this memory (bytes/s)
system.mem_ctrls.bw_write::.writebacks      186163319                       # Write bandwidth from this memory (bytes/s)
system.mem_ctrls.bw_write::total            186163319                       # Write bandwidth from this memory (bytes/s)
system.mem_ctrls.bw_total::.writebacks      186163319                       # Total bandwidth to/from this memory (bytes/s)
system.mem_ctrls.bw_total::.cpu.inst        471053003                       # Total bandwidth to/from this memory (bytes/s)
system.mem_ctrls.bw_total::.cpu.data        372907633                       # Total bandwidth to/from this memory (bytes/s)
system.mem_ctrls.bw_total::total           1030123956                       # Total bandwidth to/from this memory (bytes/s)
system.mem_ctrls.avgPriority_.writebacks::samples    120405.00                       # Average QoS priority value for accepted requests
system.mem_ctrls.avgPriority_.cpu.inst::samples     78336.00                       # Average QoS priority value for accepted requests
system.mem_ctrls.avgPriority_.cpu.data::samples     69439.00                       # Average QoS priority value for accepted requests
system.mem_ctrls.priorityMinLatency      0.000000018750                       # per QoS priority minimum request to response latency (s)
system.mem_ctrls.priorityMaxLatency      0.000159786750                       # per QoS priority maximum request to response latency (s)
system.mem_ctrls.numReadWriteTurnArounds         7403                       # Number of turnarounds from READ to WRITE
system.mem_ctrls.numWriteReadTurnArounds         7403                       # Number of turnarounds from WRITE to READ
system.mem_ctrls.numStayReadState              410303                       # Number of times bus staying in READ state
system.mem_ctrls.numStayWriteState             113067                       # Number of times bus staying in WRITE state
system.mem_ctrls.readReqs                      158335                       # Number of read requests accepted
system.mem_ctrls.writeReqs                     122554                       # Number of write requests accepted
system.mem_ctrls.readBursts                    158335                       # Number of DRAM read bursts, including those serviced by the write queue
system.mem_ctrls.writeBursts                   122554                       # Number of DRAM write bursts, including those merged in the write queue
system.mem_ctrls.servicedByWrQ                  10560                       # Number of DRAM read bursts serviced by the write queue
system.mem_ctrls.mergedWrBursts                  2149                       # Number of DRAM write bursts merged with an existing one
system.mem_ctrls.neitherReadNorWriteReqs            0                       # Number of requests that are neither read nor write
system.mem_ctrls.perBankRdBursts::0              8877                       # Per bank write bursts
system.mem_ctrls.perBankRdBursts::1              6741                       # Per bank write bursts
system.mem_ctrls.perBankRdBursts::2             10166                       # Per bank write bursts
system.mem_ctrls.perBankRdBursts::3              7127                       # Per bank write bursts
system.mem_ctrls.perBankRdBursts::4              8679                       # Per bank write bursts
system.mem_ctrls.perBankRdBursts::5             10057                       # Per bank write bursts
system.mem_ctrls.perBankRdBursts::6              8665                       # Per bank write bursts
system.mem_ctrls.perBankRdBursts::7              8765                       # Per bank write bursts
system.mem_ctrls.perBankRdBursts::8             11877                       # Per bank write bursts
system.mem_ctrls.perBankRdBursts::9              9285                       # Per bank write bursts
system.mem_ctrls.perBankRdBursts::10            10640                       # Per bank write bursts
system.mem_ctrls.perBankRdBursts::11            12040                       # Per bank write bursts
system.mem_ctrls.perBankRdBursts::12             8875                       # Per bank write bursts
system.mem_ctrls.perBankRdBursts::13            13592                       # Per bank write bursts
system.mem_ctrls.perBankRdBursts::14             5553                       # Per bank write bursts
system.mem_ctrls.perBankRdBursts::15             6836                       # Per bank write bursts
system.mem_ctrls.perBankWrBursts::0              7274                       # Per bank write bursts
system.mem_ctrls.perBankWrBursts::1              4533                       # Per bank write bursts
system.mem_ctrls.perBankWrBursts::2              8877                       # Per bank write bursts
system.mem_ctrls.perBankWrBursts::3              7965                       # Per bank write bursts
system.mem_ctrls.perBankWrBursts::4              7871                       # Per bank write bursts
system.mem_ctrls.perBankWrBursts::5              9907                       # Per bank write bursts
system.mem_ctrls.perBankWrBursts::6              7534                       # Per bank write bursts
system.mem_ctrls.perBankWrBursts::7              6962                       # Per bank write bursts
system.mem_ctrls.perBankWrBursts::8             10647                       # Per bank write bursts
system.mem_ctrls.perBankWrBursts::9              8468                       # Per bank write bursts
system.mem_ctrls.perBankWrBursts::10             7938                       # Per bank write bursts
system.mem_ctrls.perBankWrBursts::11             8059                       # Per bank write bursts
system.mem_ctrls.perBankWrBursts::12             5466                       # Per bank write bursts
system.mem_ctrls.perBankWrBursts::13             9977                       # Per bank write bursts
system.mem_ctrls.perBankWrBursts::14             3190                       # Per bank write bursts
system.mem_ctrls.perBankWrBursts::15             5713                       # Per bank write bursts
system.mem_ctrls.avgRdQLen                       1.09                       # Average read queue length when enqueuing
system.mem_ctrls.avgWrQLen                      25.69                       # Average write queue length when enqueuing
system.mem_ctrls.totQLat                   2026137250                       # Total ticks spent queuing
system.mem_ctrls.totBusLat                  738875000                       # Total ticks spent in databus transfers
system.mem_ctrls.totMemAccLat              4796918500                       # Total ticks spent from burst creation until serviced by the DRAM
system.mem_ctrls.avgQLat                     13710.96                       # Average queueing delay per DRAM burst
system.mem_ctrls.avgBusLat                    5000.00                       # Average bus latency per DRAM burst
system.mem_ctrls.avgMemAccLat                32460.96                       # Average memory access latency per DRAM burst
system.mem_ctrls.numRdRetry                         0                       # Number of times read queue was full causing retry
system.mem_ctrls.numWrRetry                         0                       # Number of times write queue was full causing retry
system.mem_ctrls.readRowHits                   104648                       # Number of row buffer hits during reads
system.mem_ctrls.writeRowHits                   81089                       # Number of row buffer hits during writes
system.mem_ctrls.readRowHitRate                 70.82                       # Row buffer hit rate for reads
system.mem_ctrls.writeRowHitRate                67.35                       # Row buffer hit rate for writes
system.mem_ctrls.readPktSize::0                     0                       # Read request sizes (log2)
system.mem_ctrls.readPktSize::1                     0                       # Read request sizes (log2)
system.mem_ctrls.readPktSize::2                     0                       # Read request sizes (log2)
system.mem_ctrls.readPktSize::3                     0                       # Read request sizes (log2)
system.mem_ctrls.readPktSize::4                     0                       # Read request sizes (log2)
system.mem_ctrls.readPktSize::5                     0                       # Read request sizes (log2)
system.mem_ctrls.readPktSize::6                158335                       # Read request sizes (log2)
system.mem_ctrls.writePktSize::0                    0                       # Write request sizes (log2)
system.mem_ctrls.writePktSize::1                    0                       # Write request sizes (log2)
system.mem_ctrls.writePktSize::2                    0                       # Write request sizes (log2)
system.mem_ctrls.writePktSize::3                    0                       # Write request sizes (log2)
system.mem_ctrls.writePktSize::4                    0                       # Write request sizes (log2)
system.mem_ctrls.writePktSize::5                    0                       # Write request sizes (log2)
system.mem_ctrls.writePktSize::6               122554                       # Write request sizes (log2)
system.mem_ctrls.rdQLenPdf::0                  135071                       # What read queue length does an incoming req see
system.mem_ctrls.rdQLenPdf::1                   12387                       # What read queue length does an incoming req see
system.mem_ctrls.rdQLenPdf::2                     317                       # What read queue length does an incoming req see
system.mem_ctrls.rdQLenPdf::3                       0                       # What read queue length does an incoming req see
system.mem_ctrls.rdQLenPdf::4                       0                       # What read queue length does an incoming req see
system.mem_ctrls.rdQLenPdf::5                       0                       # What read queue length does an incoming req see
system.mem_ctrls.rdQLenPdf::6                       0                       # What read queue length does an incoming req see
system.mem_ctrls.rdQLenPdf::7                       0                       # What read queue length does an incoming req see
system.mem_ctrls.rdQLenPdf::8                       0                       # What read queue length does an incoming req see
system.mem_ctrls.rdQLenPdf::9                       0                       # What read queue length does an incoming req see
system.mem_ctrls.rdQLenPdf::10                      0                       # What read queue length does an incoming req see
system.mem_ctrls.rdQLenPdf::11                      0                       # What read queue length does an incoming req see
system.mem_ctrls.rdQLenPdf::12                      0                       # What read queue length does an incoming req see
system.mem_ctrls.rdQLenPdf::13                      0                       # What read queue length does an incoming req see
system.mem_ctrls.rdQLenPdf::14                      0                       # What read queue length does an incoming req see
system.mem_ctrls.rdQLenPdf::15                      0                       # What read queue length does an incoming req see
system.mem_ctrls.rdQLenPdf::16                      0                       # What read queue length does an incoming req see
system.mem_ctrls.rdQLenPdf::17                      0                       # What read queue length does an incoming req see
system.mem_ctrls.rdQLenPdf::18                      0                       # What read queue length does an incoming req see
system.mem_ctrls.rdQLenPdf::19                      0                       # What read queue length does an incoming req see
system.mem_ctrls.rdQLenPdf::20                      0                       # What read queue length does an incoming req see
system.mem_ctrls.rdQLenPdf::21                      0                       # What read queue length does an incoming req see
system.mem_ctrls.rdQLenPdf::22                      0                       # What read queue length does an incoming req see
system.mem_ctrls.rdQLenPdf::23                      0                       # What read queue length does an incoming req see
system.mem_ctrls.rdQLenPdf::24                      0                       # What read queue length does an incoming req see
system.mem_ctrls.rdQLenPdf::25                      0                       # What read queue length does an incoming req see
system.mem_ctrls.rdQLenPdf::26                      0                       # What read queue length does an incoming req see
system.mem_ctrls.rdQLenPdf::27                      0                       # What read queue length does an incoming req see
system.mem_ctrls.rdQLenPdf::28                      0                       # What read queue length does an incoming req see
system.mem_ctrls.rdQLenPdf::29                      0                       # What read queue length does an incoming req see
system.mem_ctrls.rdQLenPdf::30                      0                       # What read queue length does an incoming req see
system.mem_ctrls.rdQLenPdf::31                      0                       # What read queue length does an incoming req see
system.mem_ctrls.wrQLenPdf::0                       1                       # What write queue length does an incoming req see
system.mem_ctrls.wrQLenPdf::1                       1                       # What write queue length does an incoming req see
system.mem_ctrls.wrQLenPdf::2                       1                       # What write queue length does an incoming req see
system.mem_ctrls.wrQLenPdf::3                       1                       # What write queue length does an incoming req see
system.mem_ctrls.wrQLenPdf::4                       1                       # What write queue length does an incoming req see
system.mem_ctrls.wrQLenPdf::5                       1                       # What write queue length does an incoming req see
system.mem_ctrls.wrQLenPdf::6                       1                       # What write queue length does an incoming req see
system.mem_ctrls.wrQLenPdf::7                       1                       # What write queue length does an incoming req see
system.mem_ctrls.wrQLenPdf::8                       1                       # What write queue length does an incoming req see
system.mem_ctrls.wrQLenPdf::9                       1                       # What write queue length does an incoming req see
system.mem_ctrls.wrQLenPdf::10                      1                       # What write queue length does an incoming req see
system.mem_ctrls.wrQLenPdf::11                      1                       # What write queue length does an incoming req see
system.mem_ctrls.wrQLenPdf::12                      1                       # What write queue length does an incoming req see
system.mem_ctrls.wrQLenPdf::13                      1                       # What write queue length does an incoming req see
system.mem_ctrls.wrQLenPdf::14                      1                       # What write queue length does an incoming req see
system.mem_ctrls.wrQLenPdf::15                    717                       # What write queue length does an incoming req see
system.mem_ctrls.wrQLenPdf::16                    801                       # What write queue length does an incoming req see
system.mem_ctrls.wrQLenPdf::17                   6823                       # What write queue length does an incoming req see
system.mem_ctrls.wrQLenPdf::18                   7438                       # What write queue length does an incoming req see
system.mem_ctrls.wrQLenPdf::19                   7514                       # What write queue length does an incoming req see
system.mem_ctrls.wrQLenPdf::20                   7489                       # What write queue length does an incoming req see
system.mem_ctrls.wrQLenPdf::21                   7472                       # What write queue length does an incoming req see
system.mem_ctrls.wrQLenPdf::22                   7593                       # What write queue length does an incoming req see
system.mem_ctrls.wrQLenPdf::23                   7484                       # What write queue length does an incoming req see
system.mem_ctrls.wrQLenPdf::24                   7478                       # What write queue length does an incoming req see
system.mem_ctrls.wrQLenPdf::25                   7463                       # What write queue length does an incoming req see
system.mem_ctrls.wrQLenPdf::26                   7496                       # What write queue length does an incoming req see
system.mem_ctrls.wrQLenPdf::27                   7462                       # What write queue length does an incoming req see
system.mem_ctrls.wrQLenPdf::28                   7448                       # What write queue length does an incoming req see
system.mem_ctrls.wrQLenPdf::29                   7442                       # What write queue length does an incoming req see
system.mem_ctrls.wrQLenPdf::30                   7419                       # What write queue length does an incoming req see
system.mem_ctrls.wrQLenPdf::31                   7411                       # What write queue length does an incoming req see
system.mem_ctrls.wrQLenPdf::32                   7405                       # What write queue length does an incoming req see
system.mem_ctrls.wrQLenPdf::33                     15                       # What write queue length does an incoming req see
system.mem_ctrls.wrQLenPdf::34                      7                       # What write queue length does an incoming req see
system.mem_ctrls.wrQLenPdf::35                      5                       # What write queue length does an incoming req see
system.mem_ctrls.wrQLenPdf::36                      8                       # What write queue length does an incoming req see
system.mem_ctrls.wrQLenPdf::37                      0                       # What write queue length does an incoming req see
system.mem_ctrls.wrQLenPdf::38                      0                       # What write queue length does an incoming req see
system.mem_ctrls.wrQLenPdf::39                      0                       # What write queue length does an incoming req see
system.mem_ctrls.wrQLenPdf::40                      0                       # What write queue length does an incoming req see
system.mem_ctrls.wrQLenPdf::41                      0                       # What write queue length does an incoming req see
system.mem_ctrls.wrQLenPdf::42                      0                       # What write queue length does an incoming req see
system.mem_ctrls.wrQLenPdf::43                      0                       # What write queue length does an incoming req see
system.mem_ctrls.wrQLenPdf::44                      0                       # What write queue length does an incoming req see
system.mem_ctrls.wrQLenPdf::45                      0                       # What write queue length does an incoming req see
system.mem_ctrls.wrQLenPdf::46                      0                       # What write queue length does an incoming req see
system.mem_ctrls.wrQLenPdf::47                      0                       # What write queue length does an incoming req see
system.mem_ctrls.wrQLenPdf::48                      0                       # What write queue length does an incoming req see
system.mem_ctrls.wrQLenPdf::49                      0                       # What write queue length does an incoming req see
system.mem_ctrls.wrQLenPdf::50                      0                       # What write queue length does an incoming req see
system.mem_ctrls.wrQLenPdf::51                      0                       # What write queue length does an incoming req see
system.mem_ctrls.wrQLenPdf::52                      0                       # What write queue length does an incoming req see
system.mem_ctrls.wrQLenPdf::53                      0                       # What write queue length does an incoming req see
system.mem_ctrls.wrQLenPdf::54                      0                       # What write queue length does an incoming req see
system.mem_ctrls.wrQLenPdf::55                      0                       # What write queue length does an incoming req see
system.mem_ctrls.wrQLenPdf::56                      0                       # What write queue length does an incoming req see
system.mem_ctrls.wrQLenPdf::57                      0                       # What write queue length does an incoming req see
system.mem_ctrls.wrQLenPdf::58                      0                       # What write queue length does an incoming req see
system.mem_ctrls.wrQLenPdf::59                      0                       # What write queue length does an incoming req see
system.mem_ctrls.wrQLenPdf::60                      0                       # What write queue length does an incoming req see
system.mem_ctrls.wrQLenPdf::61                      0                       # What write queue length does an incoming req see
system.mem_ctrls.wrQLenPdf::62                      0                       # What write queue length does an incoming req see
system.mem_ctrls.wrQLenPdf::63                      0                       # What write queue length does an incoming req see
system.mem_ctrls.bytesPerActivate::samples        82417                       # Bytes accessed per row activation
system.mem_ctrls.bytesPerActivate::mean    208.228885                       # Bytes accessed per row activation
system.mem_ctrls.bytesPerActivate::gmean   139.943589                       # Bytes accessed per row activation
system.mem_ctrls.bytesPerActivate::stdev   224.740878                       # Bytes accessed per row activation
system.mem_ctrls.bytesPerActivate::0-127        35061     42.54%     42.54% # Bytes accessed per row activation
system.mem_ctrls.bytesPerActivate::128-255        24383     29.58%     72.13% # Bytes accessed per row activation
system.mem_ctrls.bytesPerActivate::256-383        10008     12.14%     84.27% # Bytes accessed per row activation
system.mem_ctrls.bytesPerActivate::384-511         4665      5.66%     89.93% # Bytes accessed per row activation
system.mem_ctrls.bytesPerActivate::512-639         2517      3.05%     92.98% # Bytes accessed per row activation
system.mem_ctrls.bytesPerActivate::640-767         1479      1.79%     94.78% # Bytes accessed per row activation
system.mem_ctrls.bytesPerActivate::768-895          927      1.12%     95.90% # Bytes accessed per row activation
system.mem_ctrls.bytesPerActivate::896-1023          606      0.74%     96.64% # Bytes accessed per row activation
system.mem_ctrls.bytesPerActivate::1024-1151         2771      3.36%    100.00% # Bytes accessed per row activation
system.mem_ctrls.bytesPerActivate::total        82417                       # Bytes accessed per row activation
system.mem_ctrls.rdPerTurnAround::samples         7403                       # Reads before turning the bus around for writes
system.mem_ctrls.rdPerTurnAround::mean      19.960557                       # Reads before turning the bus around for writes
system.mem_ctrls.rdPerTurnAround::gmean     18.353173                       # Reads before turning the bus around for writes
system.mem_ctrls.rdPerTurnAround::stdev     12.660782                       # Reads before turning the bus around for writes
system.mem_ctrls.rdPerTurnAround::0-15           1346     18.18%     18.18% # Reads before turning the bus around for writes
system.mem_ctrls.rdPerTurnAround::16-31          5573     75.28%     93.46% # Reads before turning the bus around for writes
system.mem_ctrls.rdPerTurnAround::32-47           285      3.85%     97.31% # Reads before turning the bus around for writes
system.mem_ctrls.rdPerTurnAround::48-63            97      1.31%     98.62% # Reads before turning the bus around for writes
system.mem_ctrls.rdPerTurnAround::64-79            43      0.58%     99.20% # Reads before turning the bus around for writes
system.mem_ctrls.rdPerTurnAround::80-95            22      0.30%     99.50% # Reads before turning the bus around for writes
system.mem_ctrls.rdPerTurnAround::96-111           11      0.15%     99.65% # Reads before turning the bus around for writes
system.mem_ctrls.rdPerTurnAround::112-127           10      0.14%     99.78% # Reads before turning the bus around for writes
system.mem_ctrls.rdPerTurnAround::128-143            8      0.11%     99.89% # Reads before turning the bus around for writes
system.mem_ctrls.rdPerTurnAround::144-159            4      0.05%     99.95% # Reads before turning the bus around for writes
system.mem_ctrls.rdPerTurnAround::176-191            1      0.01%     99.96% # Reads before turning the bus around for writes
system.mem_ctrls.rdPerTurnAround::208-223            1      0.01%     99.97% # Reads before turning the bus around for writes
system.mem_ctrls.rdPerTurnAround::256-271            1      0.01%     99.99% # Reads before turning the bus around for writes
system.mem_ctrls.rdPerTurnAround::400-415            1      0.01%    100.00% # Reads before turning the bus around for writes
system.mem_ctrls.rdPerTurnAround::total          7403                       # Reads before turning the bus around for writes
system.mem_ctrls.wrPerTurnAround::samples         7403                       # Writes before turning the bus around for reads
system.mem_ctrls.wrPerTurnAround::mean      16.261110                       # Writes before turning the bus around for reads
system.mem_ctrls.wrPerTurnAround::gmean     16.244019                       # Writes before turning the bus around for reads
system.mem_ctrls.wrPerTurnAround::stdev      0.779904                       # Writes before turning the bus around for reads
system.mem_ctrls.wrPerTurnAround::16             6572     88.77%     88.77% # Writes before turning the bus around for reads
system.mem_ctrls.wrPerTurnAround::17               79      1.07%     89.84% # Writes before turning the bus around for reads
system.mem_ctrls.wrPerTurnAround::18              479      6.47%     96.31% # Writes before turning the bus around for reads
system.mem_ctrls.wrPerTurnAround::19              204      2.76%     99.07% # Writes before turning the bus around for reads
system.mem_ctrls.wrPerTurnAround::20               61      0.82%     99.89% # Writes before turning the bus around for reads
system.mem_ctrls.wrPerTurnAround::21                8      0.11%    100.00% # Writes before turning the bus around for reads
system.mem_ctrls.wrPerTurnAround::total          7403                       # Writes before turning the bus around for reads
system.mem_ctrls.bytesReadDRAM                9457600                       # Total number of bytes read from DRAM
system.mem_ctrls.bytesReadWrQ                  675840                       # Total number of bytes read from write queue
system.mem_ctrls.bytesWritten                 7704384                       # Total number of bytes written to DRAM
system.mem_ctrls.bytesReadSys                10133440                       # Total read bytes from the system interface side
system.mem_ctrls.bytesWrittenSys              7843456                       # Total written bytes from the system interface side
system.mem_ctrls.avgRdBW                       787.67                       # Average DRAM read bandwidth in MiByte/s
system.mem_ctrls.avgWrBW                       641.66                       # Average achieved write bandwidth in MiByte/s
system.mem_ctrls.avgRdBWSys                    843.96                       # Average system read bandwidth in MiByte/s
system.mem_ctrls.avgWrBWSys                    653.24                       # Average system write bandwidth in MiByte/s
system.mem_ctrls.peakBW                      12800.00                       # Theoretical peak bandwidth in MiByte/s
system.mem_ctrls.busUtil                        11.17                       # Data bus utilization in percentage
system.mem_ctrls.busUtilRead                     6.15                       # Data bus utilization in percentage for reads
system.mem_ctrls.busUtilWrite                    5.01                       # Data bus utilization in percentage for writes
system.mem_ctrls.totGap                   12007000500                       # Total gap between requests
system.mem_ctrls.avgGap                      42746.42                       # Average gap between requests
system.mem_ctrls.masterReadBytes::.cpu.inst      5013504                       # Per-master bytes read from memory
system.mem_ctrls.masterReadBytes::.cpu.data      4444096                       # Per-master bytes read from memory
system.mem_ctrls.masterWriteBytes::.writebacks      7704384                       # Per-master bytes write to memory
system.mem_ctrls.masterReadRate::.cpu.inst 417548238.817746877670                       # Per-master bytes read from memory rate (Bytes/sec)
system.mem_ctrls.masterReadRate::.cpu.data 370125257.292503118515                       # Per-master bytes read from memory rate (Bytes/sec)
[...]
system.cpu.icache.tags.warmup_cycle                 0                       # Cycle when the warmup percentage was hit.
system.cpu.icache.tags.occ_blocks::.cpu.inst   511.990681                       # Average occupied blocks per requestor
system.cpu.icache.tags.occ_percent::.cpu.inst     0.999982                       # Average percentage of cache occupancy
system.cpu.icache.tags.occ_percent::total     0.999982                       # Average percentage of cache occupancy
system.cpu.icache.tags.occ_task_id_blocks::1024          512                       # Occupied blocks per task id
system.cpu.icache.tags.age_task_id_blocks_1024::0           79                       # Occupied blocks per task id
system.cpu.icache.tags.age_task_id_blocks_1024::1           25                       # Occupied blocks per task id
system.cpu.icache.tags.age_task_id_blocks_1024::2          406                       # Occupied blocks per task id
system.cpu.icache.tags.age_task_id_blocks_1024::3            2                       # Occupied blocks per task id
system.cpu.icache.tags.occ_task_id_percent::1024            1                       # Percentage of cache occupancy per task id
system.cpu.icache.tags.tag_accesses           5642409                       # Number of tag accesses
system.cpu.icache.tags.data_accesses          5642409                       # Number of data accesses
system.cpu.dcache.pwrStateResidencyTicks::UNDEFINED  12021544000                       # Cumulative time (in ticks) in various power states
system.cpu.dcache.demand_hits::.cpu.data      1833661                       # number of demand (read+write) hits
system.cpu.dcache.demand_hits::total          1833661                       # number of demand (read+write) hits
system.cpu.dcache.overall_hits::.cpu.data      1833661                       # number of overall hits
system.cpu.dcache.overall_hits::total         1833661                       # number of overall hits
system.cpu.dcache.demand_misses::.cpu.data       122468                       # number of demand (read+write) misses
system.cpu.dcache.demand_misses::total         122468                       # number of demand (read+write) misses
system.cpu.dcache.overall_misses::.cpu.data       122468                       # number of overall misses
system.cpu.dcache.overall_misses::total        122468                       # number of overall misses
system.cpu.dcache.demand_miss_latency::.cpu.data   7068613500                       # number of demand (read+write) miss cycles
system.cpu.dcache.demand_miss_latency::total   7068613500                       # number of demand (read+write) miss cycles
system.cpu.dcache.overall_miss_latency::.cpu.data   7068613500                       # number of overall miss cycles
system.cpu.dcache.overall_miss_latency::total   7068613500                       # number of overall miss cycles
system.cpu.dcache.demand_accesses::.cpu.data      1956129                       # number of demand (read+write) accesses
system.cpu.dcache.demand_accesses::total      1956129                       # number of demand (read+write) accesses
system.cpu.dcache.overall_accesses::.cpu.data      1956129                       # number of overall (read+write) accesses
system.cpu.dcache.overall_accesses::total      1956129                       # number of overall (read+write) accesses
system.cpu.dcache.demand_miss_rate::.cpu.data     0.062607                       # miss rate for demand accesses
system.cpu.dcache.demand_miss_rate::total     0.062607                       # miss rate for demand accesses
system.cpu.dcache.overall_miss_rate::.cpu.data     0.062607                       # miss rate for overall accesses
system.cpu.dcache.overall_miss_rate::total     0.062607                       # miss rate for overall accesses
system.cpu.dcache.demand_avg_miss_latency::.cpu.data 57718.044714                       # average overall miss latency
system.cpu.dcache.demand_avg_miss_latency::total 57718.044714                       # average overall miss latency
system.cpu.dcache.overall_avg_miss_latency::.cpu.data 57718.044714                       # average overall miss latency
system.cpu.dcache.overall_avg_miss_latency::total 57718.044714                       # average overall miss latency
system.cpu.dcache.blocked_cycles::no_mshrs            0                       # number of cycles access was blocked
system.cpu.dcache.blocked_cycles::no_targets            0                       # number of cycles access was blocked
system.cpu.dcache.blocked::no_mshrs                 0                       # number of cycles access was blocked
system.cpu.dcache.blocked::no_targets               0                       # number of cycles access was blocked
system.cpu.dcache.avg_blocked_cycles::no_mshrs          nan                       # average number of cycles each access was blocked
system.cpu.dcache.avg_blocked_cycles::no_targets          nan                       # average number of cycles each access was blocked
system.cpu.dcache.writebacks::.writebacks        57008                       # number of writebacks
system.cpu.dcache.writebacks::total             57008                       # number of writebacks
system.cpu.dcache.demand_mshr_hits::.cpu.data        56787                       # number of demand (read+write) MSHR hits
system.cpu.dcache.demand_mshr_hits::total        56787                       # number of demand (read+write) MSHR hits
system.cpu.dcache.overall_mshr_hits::.cpu.data        56787                       # number of overall MSHR hits
system.cpu.dcache.overall_mshr_hits::total        56787                       # number of overall MSHR hits
system.cpu.dcache.demand_mshr_misses::.cpu.data        65681                       # number of demand (read+write) MSHR misses
system.cpu.dcache.demand_mshr_misses::total        65681                       # number of demand (read+write) MSHR misses
system.cpu.dcache.overall_mshr_misses::.cpu.data        65681                       # number of overall MSHR misses
system.cpu.dcache.overall_mshr_misses::total        65681                       # number of overall MSHR misses
system.cpu.dcache.overall_mshr_uncacheable_misses::.cpu.data          256                       # number of overall MSHR uncacheable misses
system.cpu.dcache.overall_mshr_uncacheable_misses::total          256                       # number of overall MSHR uncacheable misses
system.cpu.dcache.demand_mshr_miss_latency::.cpu.data   3867133500                       # number of demand (read+write) MSHR miss cycles
system.cpu.dcache.demand_mshr_miss_latency::total   3867133500                       # number of demand (read+write) MSHR miss cycles
system.cpu.dcache.overall_mshr_miss_latency::.cpu.data   3867133500                       # number of overall MSHR miss cycles
system.cpu.dcache.overall_mshr_miss_latency::total   3867133500                       # number of overall MSHR miss cycles
system.cpu.dcache.overall_mshr_uncacheable_latency::.cpu.data     35871000                       # number of overall MSHR uncacheable cycles
system.cpu.dcache.overall_mshr_uncacheable_latency::total     35871000                       # number of overall MSHR uncacheable cycles
system.cpu.dcache.demand_mshr_miss_rate::.cpu.data     0.033577                       # mshr miss rate for demand accesses
system.cpu.dcache.demand_mshr_miss_rate::total     0.033577                       # mshr miss rate for demand accesses
system.cpu.dcache.overall_mshr_miss_rate::.cpu.data     0.033577                       # mshr miss rate for overall accesses
system.cpu.dcache.overall_mshr_miss_rate::total     0.033577                       # mshr miss rate for overall accesses
system.cpu.dcache.demand_avg_mshr_miss_latency::.cpu.data 58877.506433                       # average overall mshr miss latency
system.cpu.dcache.demand_avg_mshr_miss_latency::total 58877.506433                       # average overall mshr miss latency
system.cpu.dcache.overall_avg_mshr_miss_latency::.cpu.data 58877.506433                       # average overall mshr miss latency
system.cpu.dcache.overall_avg_mshr_miss_latency::total 58877.506433                       # average overall mshr miss latency
system.cpu.dcache.overall_avg_mshr_uncacheable_latency::.cpu.data 140121.093750                       # average overall mshr uncacheable latency
system.cpu.dcache.overall_avg_mshr_uncacheable_latency::total 140121.093750                       # average overall mshr uncacheable latency
system.cpu.dcache.replacements                  66003                       # number of replacements
system.cpu.dcache.ReadReq_hits::.cpu.data       997745                       # number of ReadReq hits
system.cpu.dcache.ReadReq_hits::total          997745                       # number of ReadReq hits
system.cpu.dcache.ReadReq_misses::.cpu.data        12601                       # number of ReadReq misses
system.cpu.dcache.ReadReq_misses::total         12601                       # number of ReadReq misses
system.cpu.dcache.ReadReq_miss_latency::.cpu.data    842184000                       # number of ReadReq miss cycles
system.cpu.dcache.ReadReq_miss_latency::total    842184000                       # number of ReadReq miss cycles
system.cpu.dcache.ReadReq_accesses::.cpu.data      1010346                       # number of ReadReq accesses(hits+misses)
system.cpu.dcache.ReadReq_accesses::total      1010346                       # number of ReadReq accesses(hits+misses)
system.cpu.dcache.ReadReq_miss_rate::.cpu.data     0.012472                       # miss rate for ReadReq accesses
system.cpu.dcache.ReadReq_miss_rate::total     0.012472                       # miss rate for ReadReq accesses
system.cpu.dcache.ReadReq_avg_miss_latency::.cpu.data 66834.695659                       # average ReadReq miss latency
system.cpu.dcache.ReadReq_avg_miss_latency::total 66834.695659                       # average ReadReq miss latency
system.cpu.dcache.ReadReq_mshr_hits::.cpu.data         2202                       # number of ReadReq MSHR hits
system.cpu.dcache.ReadReq_mshr_hits::total         2202                       # number of ReadReq MSHR hits
system.cpu.dcache.ReadReq_mshr_misses::.cpu.data        10399                       # number of ReadReq MSHR misses
system.cpu.dcache.ReadReq_mshr_misses::total        10399                       # number of ReadReq MSHR misses
system.cpu.dcache.ReadReq_mshr_uncacheable::.cpu.data          165                       # number of ReadReq MSHR uncacheable
system.cpu.dcache.ReadReq_mshr_uncacheable::total          165                       # number of ReadReq MSHR uncacheable
system.cpu.dcache.ReadReq_mshr_miss_latency::.cpu.data    696686500                       # number of ReadReq MSHR miss cycles
system.cpu.dcache.ReadReq_mshr_miss_latency::total    696686500                       # number of ReadReq MSHR miss cycles
system.cpu.dcache.ReadReq_mshr_uncacheable_latency::.cpu.data     35871000                       # number of ReadReq MSHR uncacheable cycles
system.cpu.dcache.ReadReq_mshr_uncacheable_latency::total     35871000                       # number of ReadReq MSHR uncacheable cycles
system.cpu.dcache.ReadReq_mshr_miss_rate::.cpu.data     0.010293                       # mshr miss rate for ReadReq accesses
system.cpu.dcache.ReadReq_mshr_miss_rate::total     0.010293                       # mshr miss rate for ReadReq accesses
system.cpu.dcache.ReadReq_avg_mshr_miss_latency::.cpu.data 66995.528416                       # average ReadReq mshr miss latency
system.cpu.dcache.ReadReq_avg_mshr_miss_latency::total 66995.528416                       # average ReadReq mshr miss latency
system.cpu.dcache.ReadReq_avg_mshr_uncacheable_latency::.cpu.data       217400                       # average ReadReq mshr uncacheable latency
system.cpu.dcache.ReadReq_avg_mshr_uncacheable_latency::total       217400                       # average ReadReq mshr uncacheable latency
system.cpu.dcache.WriteReq_hits::.cpu.data       835916                       # number of WriteReq hits
system.cpu.dcache.WriteReq_hits::total         835916                       # number of WriteReq hits
system.cpu.dcache.WriteReq_misses::.cpu.data       109867                       # number of WriteReq misses
system.cpu.dcache.WriteReq_misses::total       109867                       # number of WriteReq misses
system.cpu.dcache.WriteReq_miss_latency::.cpu.data   6226429500                       # number of WriteReq miss cycles
system.cpu.dcache.WriteReq_miss_latency::total   6226429500                       # number of WriteReq miss cycles
system.cpu.dcache.WriteReq_accesses::.cpu.data       945783                       # number of WriteReq accesses(hits+misses)
system.cpu.dcache.WriteReq_accesses::total       945783                       # number of WriteReq accesses(hits+misses)
system.cpu.dcache.WriteReq_miss_rate::.cpu.data     0.116165                       # miss rate for WriteReq accesses
system.cpu.dcache.WriteReq_miss_rate::total     0.116165                       # miss rate for WriteReq accesses
system.cpu.dcache.WriteReq_avg_miss_latency::.cpu.data 56672.426661                       # average WriteReq miss latency
system.cpu.dcache.WriteReq_avg_miss_latency::total 56672.426661                       # average WriteReq miss latency
system.cpu.dcache.WriteReq_mshr_hits::.cpu.data        54585                       # number of WriteReq MSHR hits
system.cpu.dcache.WriteReq_mshr_hits::total        54585                       # number of WriteReq MSHR hits
system.cpu.dcache.WriteReq_mshr_misses::.cpu.data        55282                       # number of WriteReq MSHR misses
system.cpu.dcache.WriteReq_mshr_misses::total        55282                       # number of WriteReq MSHR misses
system.cpu.dcache.WriteReq_mshr_uncacheable::.cpu.data           91                       # number of WriteReq MSHR uncacheable
system.cpu.dcache.WriteReq_mshr_uncacheable::total           91                       # number of WriteReq MSHR uncacheable
system.cpu.dcache.WriteReq_mshr_miss_latency::.cpu.data   3170447000                       # number of WriteReq MSHR miss cycles
system.cpu.dcache.WriteReq_mshr_miss_latency::total   3170447000                       # number of WriteReq MSHR miss cycles
system.cpu.dcache.WriteReq_mshr_miss_rate::.cpu.data     0.058451                       # mshr miss rate for WriteReq accesses
system.cpu.dcache.WriteReq_mshr_miss_rate::total     0.058451                       # mshr miss rate for WriteReq accesses
system.cpu.dcache.WriteReq_avg_mshr_miss_latency::.cpu.data 57350.439564                       # average WriteReq mshr miss latency
system.cpu.dcache.WriteReq_avg_mshr_miss_latency::total 57350.439564                       # average WriteReq mshr miss latency
system.cpu.dcache.LoadLockedReq_hits::.cpu.data         4484                       # number of LoadLockedReq hits
system.cpu.dcache.LoadLockedReq_hits::total         4484                       # number of LoadLockedReq hits
system.cpu.dcache.LoadLockedReq_misses::.cpu.data          324                       # number of LoadLockedReq misses
system.cpu.dcache.LoadLockedReq_misses::total          324                       # number of LoadLockedReq misses
system.cpu.dcache.LoadLockedReq_miss_latency::.cpu.data     23073000                       # number of LoadLockedReq miss cycles
system.cpu.dcache.LoadLockedReq_miss_latency::total     23073000                       # number of LoadLockedReq miss cycles
system.cpu.dcache.LoadLockedReq_accesses::.cpu.data         4808                       # number of LoadLockedReq accesses(hits+misses)
system.cpu.dcache.LoadLockedReq_accesses::total         4808                       # number of LoadLockedReq accesses(hits+misses)
system.cpu.dcache.LoadLockedReq_miss_rate::.cpu.data     0.067388                       # miss rate for LoadLockedReq accesses
system.cpu.dcache.LoadLockedReq_miss_rate::total     0.067388                       # miss rate for LoadLockedReq accesses
system.cpu.dcache.LoadLockedReq_avg_miss_latency::.cpu.data 71212.962963                       # average LoadLockedReq miss latency
system.cpu.dcache.LoadLockedReq_avg_miss_latency::total 71212.962963                       # average LoadLockedReq miss latency
system.cpu.dcache.LoadLockedReq_mshr_misses::.cpu.data          324                       # number of LoadLockedReq MSHR misses
system.cpu.dcache.LoadLockedReq_mshr_misses::total          324                       # number of LoadLockedReq MSHR misses
system.cpu.dcache.LoadLockedReq_mshr_miss_latency::.cpu.data     22749000                       # number of LoadLockedReq MSHR miss cycles
system.cpu.dcache.LoadLockedReq_mshr_miss_latency::total     22749000                       # number of LoadLockedReq MSHR miss cycles
system.cpu.dcache.LoadLockedReq_mshr_miss_rate::.cpu.data     0.067388                       # mshr miss rate for LoadLockedReq accesses
system.cpu.dcache.LoadLockedReq_mshr_miss_rate::total     0.067388                       # mshr miss rate for LoadLockedReq accesses
system.cpu.dcache.LoadLockedReq_avg_mshr_miss_latency::.cpu.data 70212.962963                       # average LoadLockedReq mshr miss latency
system.cpu.dcache.LoadLockedReq_avg_mshr_miss_latency::total 70212.962963                       # average LoadLockedReq mshr miss latency
system.cpu.dcache.StoreCondReq_hits::.cpu.data         4757                       # number of StoreCondReq hits
system.cpu.dcache.StoreCondReq_hits::total         4757                       # number of StoreCondReq hits
system.cpu.dcache.StoreCondReq_accesses::.cpu.data         4757                       # number of StoreCondReq accesses(hits+misses)
system.cpu.dcache.StoreCondReq_accesses::total         4757                       # number of StoreCondReq accesses(hits+misses)
system.cpu.dcache.tags.pwrStateResidencyTicks::UNDEFINED  12021544000                       # Cumulative time (in ticks) in various power states
system.cpu.dcache.tags.tagsinuse                 1024                       # Cycle average of tags in use
system.cpu.dcache.tags.total_refs             7634009                       # Total number of references to valid blocks.
system.cpu.dcache.tags.sampled_refs             67027                       # Sample count of references to valid blocks.
system.cpu.dcache.tags.avg_refs            113.894535                       # Average number of references to valid blocks.
system.cpu.dcache.tags.warmup_cycle                 0                       # Cycle when the warmup percentage was hit.
system.cpu.dcache.tags.occ_blocks::.cpu.data         1024                       # Average occupied blocks per requestor
system.cpu.dcache.tags.occ_percent::.cpu.data            1                       # Average percentage of cache occupancy
system.cpu.dcache.tags.occ_percent::total            1                       # Average percentage of cache occupancy
system.cpu.dcache.tags.occ_task_id_blocks::1024         1024                       # Occupied blocks per task id
system.cpu.dcache.tags.age_task_id_blocks_1024::0           45                       # Occupied blocks per task id
system.cpu.dcache.tags.age_task_id_blocks_1024::1          847                       # Occupied blocks per task id
system.cpu.dcache.tags.age_task_id_blocks_1024::2          120                       # Occupied blocks per task id
system.cpu.dcache.tags.age_task_id_blocks_1024::3           12                       # Occupied blocks per task id
system.cpu.dcache.tags.occ_task_id_percent::1024            1                       # Percentage of cache occupancy per task id
system.cpu.dcache.tags.tag_accesses           3997391                       # Number of tag accesses
system.cpu.dcache.tags.data_accesses          3997391                       # Number of data accesses

---------- End Simulation Statistics   ----------
