
---------- Begin Simulation Statistics ----------
final_tick                               2541872779500                       # Number of ticks from beginning of simulation (restored from checkpoints and never reset)
host_inst_rate                                 215284                       # Simulator instruction rate (inst/s)
host_mem_usage                                 740736                       # Number of bytes of host memory used
host_op_rate                                   215282                       # Simulator op (including micro ops) rate (op/s)
host_seconds                                    19.50                       # Real time elapsed on the host
host_tick_rate                              608394387                       # Simulator tick rate (ticks/s)
sim_freq                                 1000000000000                       # Frequency of simulated ticks
sim_insts                                     4197731                       # Number of instructions simulated
sim_ops                                       4197731                       # Number of ops (including micro ops) simulated
sim_seconds                                  0.011863                       # Number of seconds simulated
sim_ticks                                 11862934500                       # Number of ticks simulated
system.cpu.branchPred.BTBCorrect                    0                       # Number of correct BTB predictions (this stat may not work properly.
system.cpu.branchPred.BTBHitPct             45.424903                       # BTB Hit Percentage
system.cpu.branchPred.BTBHits                  391465                       # Number of BTB hits
system.cpu.branchPred.BTBLookups               861785                       # Number of BTB lookups
system.cpu.branchPred.RASInCorrect               2390                       # Number of incorrect RAS predictions.
system.cpu.branchPred.condIncorrect             81562                       # Number of conditional branches incorrect
system.cpu.branchPred.condPredicted            805140                       # Number of conditional branches predicted
system.cpu.branchPred.indirectHits              53081                       # Number of indirect target hits.
system.cpu.branchPred.indirectLookups          278129                       # Number of indirect predictor lookups.
system.cpu.branchPred.indirectMisses           225048                       # Number of indirect misses.
system.cpu.branchPred.lookups                  980091                       # Number of BP lookups
system.cpu.branchPred.usedRAS                   65139                       # Number of times the RAS was used to get a target.
system.cpu.branchPredindirectMispredicted        26881                       # Number of mispredicted indirect branches.
system.cpu.committedInsts                     4197731                       # Number of instructions committed
system.cpu.committedOps                       4197731                       # Number of ops (including micro ops) committed
system.cpu.cpi                               5.648813                       # CPI: cycles per instruction
system.cpu.discardedOps                        191881                       # Number of ops (including micro ops) which were discarded before commit
system.cpu.dtb.data_accesses                   607777                       # DTB accesses
system.cpu.dtb.data_acv                           131                       # DTB access violations
system.cpu.dtb.data_hits                      1452674                       # DTB hits
system.cpu.dtb.data_misses                       7565                       # DTB misses
system.cpu.dtb.fetch_accesses                       0                       # ITB accesses
system.cpu.dtb.fetch_acv                            0                       # ITB acv
system.cpu.dtb.fetch_hits                           0                       # ITB hits
system.cpu.dtb.fetch_misses                         0                       # ITB misses
system.cpu.dtb.read_accesses                   405716                       # DTB read accesses
system.cpu.dtb.read_acv                            43                       # DTB read access violations
system.cpu.dtb.read_hits                       849773                       # DTB read hits
system.cpu.dtb.read_misses                       6705                       # DTB read misses
system.cpu.dtb.write_accesses                  202061                       # DTB write accesses
system.cpu.dtb.write_acv                           88                       # DTB write access violations
system.cpu.dtb.write_hits                      602901                       # DTB write hits
system.cpu.dtb.write_misses                       860                       # DTB write misses
system.cpu.fetch2.amo_instructions                  0                       # Number of memory atomic instructions successfully decoded
system.cpu.fetch2.fp_instructions               18036                       # Number of floating point instructions successfully decoded
system.cpu.fetch2.int_instructions            3390492                       # Number of integer instructions successfully decoded
system.cpu.fetch2.load_instructions           1033921                       # Number of memory load instructions successfully decoded
system.cpu.fetch2.store_instructions           662751                       # Number of memory store instructions successfully decoded
system.cpu.fetch2.vec_instructions                  0                       # Number of SIMD instructions successfully decoded
system.cpu.idleCycles                        16724345                       # Total number of cycles that the object has spent stopped
system.cpu.ipc                               0.177028                       # IPC: instructions per cycle
system.cpu.itb.data_accesses                        0                       # DTB accesses
system.cpu.itb.data_acv                             0                       # DTB access violations
system.cpu.itb.data_hits                            0                       # DTB hits
system.cpu.itb.data_misses                          0                       # DTB misses
system.cpu.itb.fetch_accesses                  979368                       # ITB accesses
system.cpu.itb.fetch_acv                          780                       # ITB acv
system.cpu.itb.fetch_hits                      972280                       # ITB hits
system.cpu.itb.fetch_misses                      7088                       # ITB misses
system.cpu.itb.read_accesses                        0                       # DTB read accesses
system.cpu.itb.read_acv                             0                       # DTB read access violations
system.cpu.itb.read_hits                            0                       # DTB read hits
system.cpu.itb.read_misses                          0                       # DTB read misses
system.cpu.itb.write_accesses                       0                       # DTB write accesses
system.cpu.itb.write_acv                            0                       # DTB write access violations
system.cpu.itb.write_hits                           0                       # DTB write hits
system.cpu.itb.write_misses                         0                       # DTB write misses
system.cpu.kern.callpal::swpctx                   574      9.46%      9.46% # number of callpals executed
system.cpu.kern.callpal::tbi                       25      0.41%      9.87% # number of callpals executed
system.cpu.kern.callpal::swpipl                  4203     69.29%     79.16% # number of callpals executed
system.cpu.kern.callpal::rdps                      48      0.79%     79.95% # number of callpals executed
system.cpu.kern.callpal::wrusp                      4      0.07%     80.02% # number of callpals executed
system.cpu.kern.callpal::rdusp                      3      0.05%     80.07% # number of callpals executed
system.cpu.kern.callpal::rti                      896     14.77%     94.84% # number of callpals executed
system.cpu.kern.callpal::callsys                  235      3.87%     98.71% # number of callpals executed
system.cpu.kern.callpal::imb                       78      1.29%    100.00% # number of callpals executed
system.cpu.kern.callpal::total                   6066                       # number of callpals executed
system.cpu.kern.inst.arm                            0                       # number of arm instructions executed
system.cpu.kern.inst.hwrei                      14409                       # number of hwrei instructions executed
system.cpu.kern.inst.quiesce                        9                       # number of quiesce instructions executed
system.cpu.kern.ipl_count::0                     2426     47.42%     47.42% # number of times we switched to this ipl
system.cpu.kern.ipl_count::21                       5      0.10%     47.52% # number of times we switched to this ipl
system.cpu.kern.ipl_count::22                      12      0.23%     47.75% # number of times we switched to this ipl
system.cpu.kern.ipl_count::31                    2673     52.25%    100.00% # number of times we switched to this ipl
system.cpu.kern.ipl_count::total                 5116                       # number of times we switched to this ipl
system.cpu.kern.ipl_good::0                      2413     49.82%     49.82% # number of times we switched to this ipl from a different ipl
system.cpu.kern.ipl_good::21                        5      0.10%     49.93% # number of times we switched to this ipl from a different ipl
system.cpu.kern.ipl_good::22                       12      0.25%     50.18% # number of times we switched to this ipl from a different ipl
system.cpu.kern.ipl_good::31                     2413     49.82%    100.00% # number of times we switched to this ipl from a different ipl
system.cpu.kern.ipl_good::total                  4843                       # number of times we switched to this ipl from a different ipl
system.cpu.kern.ipl_ticks::0              10955718000     92.32%     92.32% # number of cycles we spent at this ipl
system.cpu.kern.ipl_ticks::21                 9292500      0.08%     92.40% # number of cycles we spent at this ipl
system.cpu.kern.ipl_ticks::22                17311500      0.15%     92.54% # number of cycles we spent at this ipl
system.cpu.kern.ipl_ticks::31               884958000      7.46%    100.00% # number of cycles we spent at this ipl
system.cpu.kern.ipl_ticks::total          11867280000                       # number of cycles we spent at this ipl
system.cpu.kern.ipl_used::0                  0.994641                       # fraction of swpipl calls that actually changed the ipl
system.cpu.kern.ipl_used::21                        1                       # fraction of swpipl calls that actually changed the ipl
system.cpu.kern.ipl_used::22                        1                       # fraction of swpipl calls that actually changed the ipl
system.cpu.kern.ipl_used::31                 0.902731                       # fraction of swpipl calls that actually changed the ipl
system.cpu.kern.ipl_used::total              0.946638                       # fraction of swpipl calls that actually changed the ipl
system.cpu.kern.mode_good::kernel                 870                      
system.cpu.kern.mode_good::user                   870                      
system.cpu.kern.mode_good::idle                     0                      
system.cpu.kern.mode_switch::kernel              1470                       # number of protection mode switches
system.cpu.kern.mode_switch::user                 870                       # number of protection mode switches
system.cpu.kern.mode_switch::idle                   0                       # number of protection mode switches
system.cpu.kern.mode_switch_good::kernel     0.591837                       # fraction of useful protection mode switches
system.cpu.kern.mode_switch_good::user              1                       # fraction of useful protection mode switches
system.cpu.kern.mode_switch_good::idle            nan                       # fraction of useful protection mode switches
system.cpu.kern.mode_switch_good::total      0.743590                       # fraction of useful protection mode switches
system.cpu.kern.mode_ticks::kernel         8005251000     67.46%     67.46% # number of ticks spent at the given mode
system.cpu.kern.mode_ticks::user           3862029000     32.54%    100.00% # number of ticks spent at the given mode
system.cpu.kern.mode_ticks::idle                    0      0.00%    100.00% # number of ticks spent at the given mode
system.cpu.kern.swap_context                      574                       # number of times the context was actually changed
system.cpu.numCycles                         23712197                       # number of cpu cycles simulated
system.cpu.numFetchSuspends                         9                       # Number of times Execute suspended instruction fetching
system.cpu.numWorkItemsCompleted                    0                       # number of work items this cpu completed
system.cpu.numWorkItemsStarted                      0                       # number of work items this cpu started
system.cpu.op_class_0::No_OpClass               85453      2.04%      2.04% # Class of committed instruction
system.cpu.op_class_0::IntAlu                 2542447     60.57%     62.60% # Class of committed instruction
system.cpu.op_class_0::IntMult                   3675      0.09%     62.69% # Class of committed instruction
system.cpu.op_class_0::IntDiv                       0      0.00%     62.69% # Class of committed instruction
system.cpu.op_class_0::FloatAdd                  8286      0.20%     62.89% # Class of committed instruction
system.cpu.op_class_0::FloatCmp                     0      0.00%     62.89% # Class of committed instruction
system.cpu.op_class_0::FloatCvt                     0      0.00%     62.89% # Class of committed instruction
system.cpu.op_class_0::FloatMult                    0      0.00%     62.89% # Class of committed instruction
system.cpu.op_class_0::FloatMultAcc                 0      0.00%     62.89% # Class of committed instruction
system.cpu.op_class_0::FloatDiv                  1593      0.04%     62.93% # Class of committed instruction
system.cpu.op_class_0::FloatMisc                    0      0.00%     62.93% # Class of committed instruction
system.cpu.op_class_0::FloatSqrt                    0      0.00%     62.93% # Class of committed instruction
system.cpu.op_class_0::SimdAdd                      0      0.00%     62.93% # Class of committed instruction
system.cpu.op_class_0::SimdAddAcc                   0      0.00%     62.93% # Class of committed instruction
system.cpu.op_class_0::SimdAlu                      0      0.00%     62.93% # Class of committed instruction
system.cpu.op_class_0::SimdCmp                      0      0.00%     62.93% # Class of committed instruction
system.cpu.op_class_0::SimdCvt                      0      0.00%     62.93% # Class of committed instruction
system.cpu.op_class_0::SimdMisc                     0      0.00%     62.93% # Class of committed instruction
system.cpu.op_class_0::SimdMult                     0      0.00%     62.93% # Class of committed instruction
system.cpu.op_class_0::SimdMultAcc                  0      0.00%     62.93% # Class of committed instruction
system.cpu.op_class_0::SimdShift                    0      0.00%     62.93% # Class of committed instruction
system.cpu.op_class_0::SimdShiftAcc                 0      0.00%     62.93% # Class of committed instruction
system.cpu.op_class_0::SimdDiv                      0      0.00%     62.93% # Class of committed instruction
system.cpu.op_class_0::SimdSqrt                     0      0.00%     62.93% # Class of committed instruction
system.cpu.op_class_0::SimdFloatAdd                 0      0.00%     62.93% # Class of committed instruction
system.cpu.op_class_0::SimdFloatAlu                 0      0.00%     62.93% # Class of committed instruction
system.cpu.op_class_0::SimdFloatCmp                 0      0.00%     62.93% # Class of committed instruction
system.cpu.op_class_0::SimdFloatCvt                 0      0.00%     62.93% # Class of committed instruction
system.cpu.op_class_0::SimdFloatDiv                 0      0.00%     62.93% # Class of committed instruction
system.cpu.op_class_0::SimdFloatMisc                0      0.00%     62.93% # Class of committed instruction
system.cpu.op_class_0::SimdFloatMult                0      0.00%     62.93% # Class of committed instruction
system.cpu.op_class_0::SimdFloatMultAcc             0      0.00%     62.93% # Class of committed instruction
system.cpu.op_class_0::SimdFloatSqrt                0      0.00%     62.93% # Class of committed instruction
system.cpu.op_class_0::SimdReduceAdd                0      0.00%     62.93% # Class of committed instruction
system.cpu.op_class_0::SimdReduceAlu                0      0.00%     62.93% # Class of committed instruction
system.cpu.op_class_0::SimdReduceCmp                0      0.00%     62.93% # Class of committed instruction
system.cpu.op_class_0::SimdFloatReduceAdd            0      0.00%     62.93% # Class of committed instruction
system.cpu.op_class_0::SimdFloatReduceCmp            0      0.00%     62.93% # Class of committed instruction
system.cpu.op_class_0::SimdAes                      0      0.00%     62.93% # Class of committed instruction
system.cpu.op_class_0::SimdAesMix                   0      0.00%     62.93% # Class of committed instruction
system.cpu.op_class_0::SimdSha1Hash                 0      0.00%     62.93% # Class of committed instruction
system.cpu.op_class_0::SimdSha1Hash2                0      0.00%     62.93% # Class of committed instruction
system.cpu.op_class_0::SimdSha256Hash               0      0.00%     62.93% # Class of committed instruction
system.cpu.op_class_0::SimdSha256Hash2              0      0.00%     62.93% # Class of committed instruction
system.cpu.op_class_0::SimdShaSigma2                0      0.00%     62.93% # Class of committed instruction
system.cpu.op_class_0::SimdShaSigma3                0      0.00%     62.93% # Class of committed instruction
system.cpu.op_class_0::SimdPredAlu                  0      0.00%     62.93% # Class of committed instruction
system.cpu.op_class_0::MemRead                 839787     20.01%     82.93% # Class of committed instruction
system.cpu.op_class_0::MemWrite                592927     14.12%     97.06% # Class of committed instruction
system.cpu.op_class_0::FloatMemRead              9988      0.24%     97.29% # Class of committed instruction
system.cpu.op_class_0::FloatMemWrite             8788      0.21%     97.50% # Class of committed instruction
system.cpu.op_class_0::IprAccess               104787      2.50%    100.00% # Class of committed instruction
system.cpu.op_class_0::InstPrefetch                 0      0.00%    100.00% # Class of committed instruction
system.cpu.op_class_0::total                  4197731                       # Class of committed instruction
system.cpu.quiesceCycles                        13672                       # Total number of cycles that CPU has spent quiesced or waiting for an interrupt
system.cpu.tickCycles                         6987852                       # Number of cycles that the object actually ticked
system.disk0.dma_read_bytes                         0                       # Number of bytes transfered via DMA reads (not PRD).
system.disk0.dma_read_full_pages                    0                       # Number of full page size DMA reads (not PRD).
system.disk0.dma_read_txs                           0                       # Number of DMA read transactions (not PRD).
system.disk0.dma_write_bytes                    12288                       # Number of bytes transfered via DMA writes.
system.disk0.dma_write_full_pages                   0                       # Number of full page size DMA writes.
system.disk0.dma_write_txs                          3                       # Number of DMA write transactions.
system.disk2.dma_read_bytes                         0                       # Number of bytes transfered via DMA reads (not PRD).
system.disk2.dma_read_full_pages                    0                       # Number of full page size DMA reads (not PRD).
system.disk2.dma_read_txs                           0                       # Number of DMA read transactions (not PRD).
system.disk2.dma_write_bytes                        0                       # Number of bytes transfered via DMA writes.
system.disk2.dma_write_full_pages                   0                       # Number of full page size DMA writes.
system.disk2.dma_write_txs                          0                       # Number of DMA write transactions.
system.membus.snoop_filter.hit_multi_requests          441                       # Number of requests hitting in the snoop filter with multiple (>1) holders of the requested data.
system.membus.snoop_filter.hit_multi_snoops            0                       # Number of snoops hitting in the snoop filter with multiple (>1) holders of the requested data.
system.membus.snoop_filter.hit_single_requests       155570                       # Number of requests hitting in the snoop filter with a single holder of the requested data.
system.membus.snoop_filter.hit_single_snoops            0                       # Number of snoops hitting in the snoop filter with a single holder of the requested data.
system.membus.snoop_filter.tot_requests        312745                       # Total number of requests made to the snoop filter.
system.membus.snoop_filter.tot_snoops               0                       # Total number of snoops made to the snoop filter.
system.tsunami.ethernet.coalescedRxDesc           nan                       # average number of RxDesc's coalesced into each post
system.tsunami.ethernet.coalescedRxIdle           nan                       # average number of RxIdle's coalesced into each post
system.tsunami.ethernet.coalescedRxOk             nan                       # average number of RxOk's coalesced into each post
system.tsunami.ethernet.coalescedRxOrn            nan                       # average number of RxOrn's coalesced into each post
system.tsunami.ethernet.coalescedSwi              nan                       # average number of Swi's coalesced into each post
system.tsunami.ethernet.coalescedTotal            nan                       # average number of interrupts coalesced into each post
system.tsunami.ethernet.coalescedTxDesc           nan                       # average number of TxDesc's coalesced into each post
system.tsunami.ethernet.coalescedTxIdle           nan                       # average number of TxIdle's coalesced into each post
system.tsunami.ethernet.coalescedTxOk             nan                       # average number of TxOk's coalesced into each post
system.tsunami.ethernet.descDMAReads                0                       # Number of descriptors the device read w/ DMA
system.tsunami.ethernet.descDMAWrites               0                       # Number of descriptors the device wrote w/ DMA
system.tsunami.ethernet.descDmaReadBytes            0                       # number of descriptor bytes read w/ DMA
system.tsunami.ethernet.descDmaWriteBytes            0                       # number of descriptor bytes write w/ DMA
system.tsunami.ethernet.droppedPackets              0                       # number of packets dropped
system.tsunami.ethernet.postedInterrupts            0                       # number of posts to CPU
system.tsunami.ethernet.postedRxDesc                0                       # number of RxDesc interrupts posted to CPU
system.tsunami.ethernet.postedRxIdle                0                       # number of rxIdle interrupts posted to CPU
system.tsunami.ethernet.postedRxOk                  0                       # number of RxOk interrupts posted to CPU
system.tsunami.ethernet.postedRxOrn                 0                       # number of RxOrn posted to CPU
system.tsunami.ethernet.postedSwi                   0                       # number of software interrupts posted to CPU
system.tsunami.ethernet.postedTxDesc                0                       # number of TxDesc interrupts posted to CPU
system.tsunami.ethernet.postedTxIdle                0                       # number of TxIdle interrupts posted to CPU
system.tsunami.ethernet.postedTxOk                  0                       # number of TxOk interrupts posted to CPU
system.tsunami.ethernet.totalRxDesc                 0                       # total number of RxDesc written to ISR
system.tsunami.ethernet.totalRxIdle                 0                       # total number of RxIdle written to ISR
system.tsunami.ethernet.totalRxOk                   0                       # total number of RxOk written to ISR
system.tsunami.ethernet.totalRxOrn                  0                       # total number of RxOrn written to ISR
system.tsunami.ethernet.totalSwi                    0                       # total number of Swi written to ISR
system.tsunami.ethernet.totalTxDesc                 0                       # total number of TxDesc written to ISR
system.tsunami.ethernet.totalTxIdle                 0                       # total number of TxIdle written to ISR
system.tsunami.ethernet.totalTxOk                   0                       # total number of TxOk written to ISR
system.bridge.pwrStateResidencyTicks::UNDEFINED 2541872779500                       # Cumulative time (in ticks) in various power states
system.voltage_domain.voltage                       1                       # Voltage in Volts
system.iocache.pwrStateResidencyTicks::UNDEFINED 2541872779500                       # Cumulative time (in ticks) in various power states
system.iocache.demand_misses::.tsunami.ide          195                       # number of demand (read+write) misses
system.iocache.demand_misses::total               195                       # number of demand (read+write) misses
system.iocache.overall_misses::.tsunami.ide          195                       # number of overall misses
system.iocache.overall_misses::total              195                       # number of overall misses
system.iocache.demand_miss_latency::.tsunami.ide     22822454                       # number of demand (read+write) miss cycles
system.iocache.demand_miss_latency::total     22822454                       # number of demand (read+write) miss cycles
system.iocache.overall_miss_latency::.tsunami.ide     22822454                       # number of overall miss cycles
system.iocache.overall_miss_latency::total     22822454                       # number of overall miss cycles
system.iocache.demand_accesses::.tsunami.ide          195                       # number of demand (read+write) accesses
system.iocache.demand_accesses::total             195                       # number of demand (read+write) accesses
system.iocache.overall_accesses::.tsunami.ide          195                       # number of overall (read+write) accesses
system.iocache.overall_accesses::total            195                       # number of overall (read+write) accesses
system.iocache.demand_miss_rate::.tsunami.ide            1                       # miss rate for demand accesses
system.iocache.demand_miss_rate::total              1                       # miss rate for demand accesses
system.iocache.overall_miss_rate::.tsunami.ide            1                       # miss rate for overall accesses
system.iocache.overall_miss_rate::total             1                       # miss rate for overall accesses
system.iocache.demand_avg_miss_latency::.tsunami.ide 117038.225641                       # average overall miss latency
system.iocache.demand_avg_miss_latency::total 117038.225641                       # average overall miss latency
system.iocache.overall_avg_miss_latency::.tsunami.ide 117038.225641                       # average overall miss latency
system.iocache.overall_avg_miss_latency::total 117038.225641                       # average overall miss latency
system.iocache.blocked_cycles::no_mshrs             0                       # number of cycles access was blocked
system.iocache.blocked_cycles::no_targets            0                       # number of cycles access was blocked
system.iocache.blocked::no_mshrs                    0                       # number of cycles access was blocked
system.iocache.blocked::no_targets                  0                       # number of cycles access was blocked
system.iocache.avg_blocked_cycles::no_mshrs          nan                       # average number of cycles each access was blocked
system.iocache.avg_blocked_cycles::no_targets          nan                       # average number of cycles each access was blocked
system.iocache.writebacks::.writebacks            176                       # number of writebacks
system.iocache.writebacks::total                  176                       # number of writebacks
system.iocache.demand_mshr_misses::.tsunami.ide          195                       # number of demand (read+write) MSHR misses
system.iocache.demand_mshr_misses::total          195                       # number of demand (read+write) MSHR misses
system.iocache.overall_mshr_misses::.tsunami.ide          195                       # number of overall MSHR misses
system.iocache.overall_mshr_misses::total          195                       # number of overall MSHR misses
system.iocache.demand_mshr_miss_latency::.tsunami.ide     13059488                       # number of demand (read+write) MSHR miss cycles
system.iocache.demand_mshr_miss_latency::total     13059488                       # number of demand (read+write) MSHR miss cycles
system.iocache.overall_mshr_miss_latency::.tsunami.ide     13059488                       # number of overall MSHR miss cycles
system.iocache.overall_mshr_miss_latency::total     13059488                       # number of overall MSHR miss cycles
system.iocache.demand_mshr_miss_rate::.tsunami.ide            1                       # mshr miss rate for demand accesses
system.iocache.demand_mshr_miss_rate::total            1                       # mshr miss rate for demand accesses
system.iocache.overall_mshr_miss_rate::.tsunami.ide            1                       # mshr miss rate for overall accesses
system.iocache.overall_mshr_miss_rate::total            1                       # mshr miss rate for overall accesses
system.iocache.demand_avg_mshr_miss_latency::.tsunami.ide 66971.733333                       # average overall mshr miss latency
system.iocache.demand_avg_mshr_miss_latency::total 66971.733333                       # average overall mshr miss latency
system.iocache.overall_avg_mshr_miss_latency::.tsunami.ide 66971.733333                       # average overall mshr miss latency
system.iocache.overall_avg_mshr_miss_latency::total 66971.733333                       # average overall mshr miss latency
system.iocache.replacements                       179                       # number of replacements
system.iocache.ReadReq_misses::.tsunami.ide            3                       # number of ReadReq misses
system.iocache.ReadReq_misses::total                3                       # number of ReadReq misses
system.iocache.ReadReq_miss_latency::.tsunami.ide       349497                       # number of ReadReq miss cycles
system.iocache.ReadReq_miss_latency::total       349497                       # number of ReadReq miss cycles
system.iocache.ReadReq_accesses::.tsunami.ide            3                       # number of ReadReq accesses(hits+misses)
system.iocache.ReadReq_accesses::total              3                       # number of ReadReq accesses(hits+misses)
system.iocache.ReadReq_miss_rate::.tsunami.ide            1                       # miss rate for ReadReq accesses
system.iocache.ReadReq_miss_rate::total             1                       # miss rate for ReadReq accesses
system.iocache.ReadReq_avg_miss_latency::.tsunami.ide       116499                       # average ReadReq miss latency
system.iocache.ReadReq_avg_miss_latency::total       116499                       # average ReadReq miss latency
system.iocache.ReadReq_mshr_misses::.tsunami.ide            3                       # number of ReadReq MSHR misses
system.iocache.ReadReq_mshr_misses::total            3                       # number of ReadReq MSHR misses
system.iocache.ReadReq_mshr_miss_latency::.tsunami.ide       199497                       # number of ReadReq MSHR miss cycles
system.iocache.ReadReq_mshr_miss_latency::total       199497                       # number of ReadReq MSHR miss cycles
system.iocache.ReadReq_mshr_miss_rate::.tsunami.ide            1                       # mshr miss rate for ReadReq accesses
system.iocache.ReadReq_mshr_miss_rate::total            1                       # mshr miss rate for ReadReq accesses
system.iocache.ReadReq_avg_mshr_miss_latency::.tsunami.ide        66499                       # average ReadReq mshr miss latency
system.iocache.ReadReq_avg_mshr_miss_latency::total        66499                       # average ReadReq mshr miss latency
system.iocache.WriteLineReq_misses::.tsunami.ide          192                       # number of WriteLineReq misses
system.iocache.WriteLineReq_misses::total          192                       # number of WriteLineReq misses
system.iocache.WriteLineReq_miss_latency::.tsunami.ide     22472957                       # number of WriteLineReq miss cycles
system.iocache.WriteLineReq_miss_latency::total     22472957                       # number of WriteLineReq miss cycles
system.iocache.WriteLineReq_accesses::.tsunami.ide          192                       # number of WriteLineReq accesses(hits+misses)
system.iocache.WriteLineReq_accesses::total          192                       # number of WriteLineReq accesses(hits+misses)
system.iocache.WriteLineReq_miss_rate::.tsunami.ide            1                       # miss rate for WriteLineReq accesses
system.iocache.WriteLineReq_miss_rate::total            1                       # miss rate for WriteLineReq accesses
system.iocache.WriteLineReq_avg_miss_latency::.tsunami.ide 117046.651042                       # average WriteLineReq miss latency
system.iocache.WriteLineReq_avg_miss_latency::total 117046.651042                       # average WriteLineReq miss latency
system.iocache.WriteLineReq_mshr_misses::.tsunami.ide          192                       # number of WriteLineReq MSHR misses
system.iocache.WriteLineReq_mshr_misses::total          192                       # number of WriteLineReq MSHR misses
system.iocache.WriteLineReq_mshr_miss_latency::.tsunami.ide     12859991                       # number of WriteLineReq MSHR miss cycles
system.iocache.WriteLineReq_mshr_miss_latency::total     12859991                       # number of WriteLineReq MSHR miss cycles
system.iocache.WriteLineReq_mshr_miss_rate::.tsunami.ide            1                       # mshr miss rate for WriteLineReq accesses
system.iocache.WriteLineReq_mshr_miss_rate::total            1                       # mshr miss rate for WriteLineReq accesses
system.iocache.WriteLineReq_avg_mshr_miss_latency::.tsunami.ide 66979.119792                       # average WriteLineReq mshr miss latency
system.iocache.WriteLineReq_avg_mshr_miss_latency::total 66979.119792                       # average WriteLineReq mshr miss latency
system.iocache.tags.pwrStateResidencyTicks::UNDEFINED 2541872779500                       # Cumulative time (in ticks) in various power states
system.iocache.tags.tagsinuse                3.275516                       # Cycle average of tags in use
system.iocache.tags.total_refs                    179                       # Total number of references to valid blocks.
system.iocache.tags.sampled_refs                  179                       # Sample count of references to valid blocks.
system.iocache.tags.avg_refs                        1                       # Average number of references to valid blocks.
system.iocache.tags.warmup_cycle         2539443125000                       # Cycle when the warmup percentage was hit.
system.iocache.tags.occ_blocks::.tsunami.ide     3.275516                       # Average occupied blocks per requestor
system.iocache.tags.occ_percent::.tsunami.ide     0.204720                       # Average percentage of cache occupancy
system.iocache.tags.occ_percent::total       0.204720                       # Average percentage of cache occupancy
system.iocache.tags.occ_task_id_blocks::1023           16                       # Occupied blocks per task id
system.iocache.tags.age_task_id_blocks_1023::3           16                       # Occupied blocks per task id
system.iocache.tags.occ_task_id_percent::1023            1                       # Percentage of cache occupancy per task id
system.iocache.tags.tag_accesses                 1755                       # Number of tag accesses
system.iocache.tags.data_accesses                1755                       # Number of data accesses
system.membus.pwrStateResidencyTicks::UNDEFINED 2541872779500                       # Cumulative time (in ticks) in various power states
system.membus.trans_dist::ReadReq                 108                       # Transaction distribution
system.membus.trans_dist::ReadResp             128111                       # Transaction distribution
system.membus.trans_dist::WriteReq                 99                       # Transaction distribution
system.membus.trans_dist::WriteResp                99                       # Transaction distribution
system.membus.trans_dist::WritebackDirty        34813                       # Transaction distribution
system.membus.trans_dist::WritebackClean        86578                       # Transaction distribution
system.membus.trans_dist::CleanEvict            34156                       # Transaction distribution
system.membus.trans_dist::UpgradeReq               17                       # Transaction distribution
system.membus.trans_dist::ReadExReq             28982                       # Transaction distribution
system.membus.trans_dist::ReadExResp            28982                       # Transaction distribution
system.membus.trans_dist::ReadCleanReq          87168                       # Transaction distribution
system.membus.trans_dist::ReadSharedReq         40839                       # Transaction distribution
system.membus.trans_dist::BadAddressError            4                       # Transaction distribution
system.membus.trans_dist::InvalidateReq           192                       # Transaction distribution
system.membus.pkt_count_system.iocache.mem_side::system.mem_ctrls.port          374                       # Packet count per connected master and slave (bytes)
system.membus.pkt_count_system.iocache.mem_side::total          374                       # Packet count per connected master and slave (bytes)
system.membus.pkt_count_system.cpu.icache.mem_side::system.mem_ctrls.port       260851                       # Packet count per connected master and slave (bytes)
system.membus.pkt_count_system.cpu.icache.mem_side::total       260851                       # Packet count per connected master and slave (bytes)
system.membus.pkt_count_system.cpu.dcache.mem_side::system.bridge.slave          414                       # Packet count per connected master and slave (bytes)
system.membus.pkt_count_system.cpu.dcache.mem_side::system.mem_ctrls.port       208435                       # Packet count per connected master and slave (bytes)
system.membus.pkt_count_system.cpu.dcache.mem_side::system.membus.badaddr_responder.pio            8                       # Packet count per connected master and slave (bytes)
system.membus.pkt_count_system.cpu.dcache.mem_side::total       208857                       # Packet count per connected master and slave (bytes)
system.membus.pkt_count::total                 470082                       # Packet count per connected master and slave (bytes)
system.membus.pkt_size_system.iocache.mem_side::system.mem_ctrls.port        11264                       # Cumulative packet size per connected master and slave (bytes)
system.membus.pkt_size_system.iocache.mem_side::total        11264                       # Cumulative packet size per connected master and slave (bytes)
system.membus.pkt_size_system.cpu.icache.mem_side::system.mem_ctrls.port     11115712                       # Cumulative packet size per connected master and slave (bytes)
system.membus.pkt_size_system.cpu.icache.mem_side::total     11115712                       # Cumulative packet size per connected master and slave (bytes)
system.membus.pkt_size_system.cpu.dcache.mem_side::system.bridge.slave          433                       # Cumulative packet size per connected master and slave (bytes)
system.membus.pkt_size_system.cpu.dcache.mem_side::system.mem_ctrls.port      6684864                       # Cumulative packet size per connected master and slave (bytes)
system.membus.pkt_size_system.cpu.dcache.mem_side::total      6685297                       # Cumulative packet size per connected master and slave (bytes)
system.membus.pkt_size::total                17812273                       # Cumulative packet size per connected master and slave (bytes)
system.membus.snoops                               66                       # Total snoops (count)
system.membus.snoopTraffic                       4224                       # Total snoop traffic (bytes)
system.membus.snoop_fanout::samples            157405                       # Request fanout histogram
system.membus.snoop_fanout::mean             0.002814                       # Request fanout histogram
system.membus.snoop_fanout::stdev            0.052976                       # Request fanout histogram
system.membus.snoop_fanout::underflows              0      0.00%      0.00% # Request fanout histogram
system.membus.snoop_fanout::0                  156962     99.72%     99.72% # Request fanout histogram
system.membus.snoop_fanout::1                     443      0.28%    100.00% # Request fanout histogram
system.membus.snoop_fanout::2                       0      0.00%    100.00% # Request fanout histogram
system.membus.snoop_fanout::3                       0      0.00%    100.00% # Request fanout histogram
system.membus.snoop_fanout::overflows               0      0.00%    100.00% # Request fanout histogram
system.membus.snoop_fanout::min_value               0                       # Request fanout histogram
system.membus.snoop_fanout::max_value               1                       # Request fanout histogram
system.membus.snoop_fanout::total              157405                       # Request fanout histogram
system.membus.reqLayer0.occupancy              350500                       # Layer occupancy (ticks)
system.membus.reqLayer0.utilization               0.0                       # Layer utilization (%)
system.membus.reqLayer1.occupancy           820777037                       # Layer occupancy (ticks)
system.membus.reqLayer1.utilization               6.9                       # Layer utilization (%)
system.membus.reqLayer2.occupancy                5500                       # Layer occupancy (ticks)
system.membus.reqLayer2.utilization               0.0                       # Layer utilization (%)
system.membus.respLayer1.occupancy              17997                       # Layer occupancy (ticks)
system.membus.respLayer1.utilization              0.0                       # Layer utilization (%)
system.membus.respLayer3.occupancy          375546500                       # Layer occupancy (ticks)
system.membus.respLayer3.utilization              3.2                       # Layer utilization (%)
system.membus.badaddr_responder.pwrStateResidencyTicks::UNDEFINED 2541872779500                       # Cumulative time (in ticks) in various power states
system.membus.respLayer2.occupancy          462212750                       # Layer occupancy (ticks)
system.membus.respLayer2.utilization              3.9                       # Layer utilization (%)
system.clk_domain.clock                          1000                       # Clock period in ticks
system.tsunami.fake_uart1.pwrStateResidencyTicks::UNDEFINED 2541872779500                       # Cumulative time (in ticks) in various power states
system.tsunami.fake_uart2.pwrStateResidencyTicks::UNDEFINED 2541872779500                       # Cumulative time (in ticks) in various power states
system.tsunami.fake_uart3.pwrStateResidencyTicks::UNDEFINED 2541872779500                       # Cumulative time (in ticks) in various power states
system.tsunami.fake_uart4.pwrStateResidencyTicks::UNDEFINED 2541872779500                       # Cumulative time (in ticks) in various power states
system.tsunami.fake_ppc.pwrStateResidencyTicks::UNDEFINED 2541872779500                       # Cumulative time (in ticks) in various power states
system.tsunami.cchip.pwrStateResidencyTicks::UNDEFINED 2541872779500                       # Cumulative time (in ticks) in various power states
system.tsunami.io.pwrStateResidencyTicks::UNDEFINED 2541872779500                       # Cumulative time (in ticks) in various power states
system.tsunami.pchip.pwrStateResidencyTicks::UNDEFINED 2541872779500                       # Cumulative time (in ticks) in various power states
system.tsunami.fake_ata1.pwrStateResidencyTicks::UNDEFINED 2541872779500                       # Cumulative time (in ticks) in various power states
system.tsunami.fake_ata0.pwrStateResidencyTicks::UNDEFINED 2541872779500                       # Cumulative time (in ticks) in various power states
system.tsunami.backdoor.pwrStateResidencyTicks::UNDEFINED 2541872779500                       # Cumulative time (in ticks) in various power states
system.tsunami.fake_pnp_read3.pwrStateResidencyTicks::UNDEFINED 2541872779500                       # Cumulative time (in ticks) in various power states
system.tsunami.fake_pnp_read2.pwrStateResidencyTicks::UNDEFINED 2541872779500                       # Cumulative time (in ticks) in various power states
system.tsunami.fake_pnp_read1.pwrStateResidencyTicks::UNDEFINED 2541872779500                       # Cumulative time (in ticks) in various power states
system.tsunami.fake_pnp_read0.pwrStateResidencyTicks::UNDEFINED 2541872779500                       # Cumulative time (in ticks) in various power states
system.tsunami.fake_pnp_read7.pwrStateResidencyTicks::UNDEFINED 2541872779500                       # Cumulative time (in ticks) in various power states
system.tsunami.fake_pnp_read6.pwrStateResidencyTicks::UNDEFINED 2541872779500                       # Cumulative time (in ticks) in various power states
system.tsunami.fake_pnp_read5.pwrStateResidencyTicks::UNDEFINED 2541872779500                       # Cumulative time (in ticks) in various power states
system.tsunami.fake_pnp_read4.pwrStateResidencyTicks::UNDEFINED 2541872779500                       # Cumulative time (in ticks) in various power states
system.tsunami.fake_pnp_write.pwrStateResidencyTicks::UNDEFINED 2541872779500                       # Cumulative time (in ticks) in various power states
system.tsunami.fb.pwrStateResidencyTicks::UNDEFINED 2541872779500                       # Cumulative time (in ticks) in various power states
system.tsunami.fake_pnp_addr.pwrStateResidencyTicks::UNDEFINED 2541872779500                       # Cumulative time (in ticks) in various power states
system.tsunami.fake_OROM.pwrStateResidencyTicks::UNDEFINED 2541872779500                       # Cumulative time (in ticks) in various power states
system.tsunami.uart.pwrStateResidencyTicks::UNDEFINED 2541872779500                       # Cumulative time (in ticks) in various power states
system.tsunami.fake_sm_chip.pwrStateResidencyTicks::UNDEFINED 2541872779500                       # Cumulative time (in ticks) in various power states
system.tsunami.ethernet.pwrStateResidencyTicks::UNDEFINED 2541872779500                       # Cumulative time (in ticks) in various power states
system.tsunami.ide.pwrStateResidencyTicks::UNDEFINED 2541872779500                       # Cumulative time (in ticks) in various power states
system.cpu_voltage_domain.voltage                   1                       # Voltage in Volts
system.mem_ctrls.pwrStateResidencyTicks::UNDEFINED 2541872779500                       # Cumulative time (in ticks) in various power states
system.mem_ctrls.bytes_read::.cpu.inst        5574720                       # Number of bytes read from this memory
system.mem_ctrls.bytes_read::.cpu.data        4468096                       # Number of bytes read from this memory
system.mem_ctrls.bytes_read::total           10042816                       # Number of bytes read from this memory
system.mem_ctrls.bytes_inst_read::.cpu.inst      5574720                       # Number of instructions bytes read from this memory
system.mem_ctrls.bytes_inst_read::total       5574720                       # Number of instructions bytes read from this memory
system.mem_ctrls.bytes_written::.writebacks      2228032                       # Number of bytes written to this memory
system.mem_ctrls.bytes_written::total         2228032                       # Number of bytes written to this memory
system.mem_ctrls.num_reads::.cpu.inst           87105                       # Number of read requests responded to by this memory
system.mem_ctrls.num_reads::.cpu.data           69814                       # Number of read requests responded to by this memory
system.mem_ctrls.num_reads::total              156919                       # Number of read requests responded to by this memory
system.mem_ctrls.num_writes::.writebacks        34813                       # Number of write requests responded to by this memory
system.mem_ctrls.num_writes::total              34813                       # Number of write requests responded to by this memory
system.mem_ctrls.bw_read::.cpu.inst         469927571                       # Total read bandwidth from this memory (bytes/s)
system.mem_ctrls.bw_read::.cpu.data         376643401                       # Total read bandwidth from this memory (bytes/s)
system.mem_ctrls.bw_read::total             846570973                       # Total read bandwidth from this memory (bytes/s)
system.mem_ctrls.bw_inst_read::.cpu.inst    469927571                       # Instruction read bandwidth from this memory (bytes/s)
system.mem_ctrls.bw_inst_read::total        469927571                       # Instruction read bandwidth from this memory (bytes/s)
system.mem_ctrls.bw_write::.writebacks      187814575                       # Write bandwidth from this memory (bytes/s)
system.mem_ctrls.bw_write::total            187814575                       # Write bandwidth from this memory (bytes/s)
system.mem_ctrls.bw_total::.writebacks      187814575                       # Total bandwidth to/from this memory (bytes/s)
system.mem_ctrls.bw_total::.cpu.inst        469927571                       # Total bandwidth to/from this memory (bytes/s)
system.mem_ctrls.bw_total::.cpu.data        376643401                       # Total bandwidth to/from this memory (bytes/s)
system.mem_ctrls.bw_total::total           1034385548                       # Total bandwidth to/from this memory (bytes/s)
system.mem_ctrls.avgPriority_.writebacks::samples    118909.00                       # Average QoS priority value for accepted requests
system.mem_ctrls.avgPriority_.cpu.inst::samples     77275.00                       # Average QoS priority value for accepted requests
system.mem_ctrls.avgPriority_.cpu.data::samples     69326.00                       # Average QoS priority value for accepted requests
system.mem_ctrls.priorityMinLatency      0.000000018750                       # per QoS priority minimum request to response latency (s)
system.mem_ctrls.priorityMaxLatency      0.000218742250                       # per QoS priority maximum request to response latency (s)
system.mem_ctrls.numReadWriteTurnArounds         7320                       # Number of turnarounds from READ to WRITE
system.mem_ctrls.numWriteReadTurnArounds         7321                       # Number of turnarounds from WRITE to READ
system.mem_ctrls.numStayReadState              406609                       # Number of times bus staying in READ state
system.mem_ctrls.numStayWriteState             111651                       # Number of times bus staying in WRITE state
system.mem_ctrls.readReqs                      156919                       # Number of read requests accepted
system.mem_ctrls.writeReqs                     121172                       # Number of write requests accepted
system.mem_ctrls.readBursts                    156919                       # Number of DRAM read bursts, including those serviced by the write queue
system.mem_ctrls.writeBursts                   121172                       # Number of DRAM write bursts, including those merged in the write queue
system.mem_ctrls.servicedByWrQ                  10318                       # Number of DRAM read bursts serviced by the write queue
system.mem_ctrls.mergedWrBursts                  2263                       # Number of DRAM write bursts merged with an existing one
system.mem_ctrls.neitherReadNorWriteReqs            0                       # Number of requests that are neither read nor write
system.mem_ctrls.perBankRdBursts::0              8746                       # Per bank write bursts
system.mem_ctrls.perBankRdBursts::1              6706                       # Per bank write bursts
system.mem_ctrls.perBankRdBursts::2              9892                       # Per bank write bursts
system.mem_ctrls.perBankRdBursts::3              7160                       # Per bank write bursts
system.mem_ctrls.perBankRdBursts::4              8528                       # Per bank write bursts
system.mem_ctrls.perBankRdBursts::5             10030                       # Per bank write bursts
system.mem_ctrls.perBankRdBursts::6              8584                       # Per bank write bursts
system.mem_ctrls.perBankRdBursts::7              8714                       # Per bank write bursts
system.mem_ctrls.perBankRdBursts::8             11773                       # Per bank write bursts
system.mem_ctrls.perBankRdBursts::9              9187                       # Per bank write bursts
system.mem_ctrls.perBankRdBursts::10            10600                       # Per bank write bursts
system.mem_ctrls.perBankRdBursts::11            11976                       # Per bank write bursts
system.mem_ctrls.perBankRdBursts::12             8866                       # Per bank write bursts
system.mem_ctrls.perBankRdBursts::13            13526                       # Per bank write bursts
system.mem_ctrls.perBankRdBursts::14             5502                       # Per bank write bursts
system.mem_ctrls.perBankRdBursts::15             6811                       # Per bank write bursts
system.mem_ctrls.perBankWrBursts::0              7050                       # Per bank write bursts
system.mem_ctrls.perBankWrBursts::1              4521                       # Per bank write bursts
system.mem_ctrls.perBankWrBursts::2              8559                       # Per bank write bursts
system.mem_ctrls.perBankWrBursts::3              7942                       # Per bank write bursts
system.mem_ctrls.perBankWrBursts::4              7670                       # Per bank write bursts
system.mem_ctrls.perBankWrBursts::5              9811                       # Per bank write bursts
system.mem_ctrls.perBankWrBursts::6              7335                       # Per bank write bursts
system.mem_ctrls.perBankWrBursts::7              6888                       # Per bank write bursts
system.mem_ctrls.perBankWrBursts::8             10541                       # Per bank write bursts
system.mem_ctrls.perBankWrBursts::9              8391                       # Per bank write bursts
system.mem_ctrls.perBankWrBursts::10             7898                       # Per bank write bursts
system.mem_ctrls.perBankWrBursts::11             8039                       # Per bank write bursts
system.mem_ctrls.perBankWrBursts::12             5441                       # Per bank write bursts
system.mem_ctrls.perBankWrBursts::13             9939                       # Per bank write bursts
system.mem_ctrls.perBankWrBursts::14             3154                       # Per bank write bursts
system.mem_ctrls.perBankWrBursts::15             5703                       # Per bank write bursts
system.mem_ctrls.avgRdQLen                       1.09                       # Average read queue length when enqueuing
system.mem_ctrls.avgWrQLen                      25.71                       # Average write queue length when enqueuing
system.mem_ctrls.totQLat                   2005226750                       # Total ticks spent queuing
system.mem_ctrls.totBusLat                  733005000                       # Total ticks spent in databus transfers
system.mem_ctrls.totMemAccLat              4753995500                       # Total ticks spent from burst creation until serviced by the DRAM
system.mem_ctrls.avgQLat                     13678.12                       # Average queueing delay per DRAM burst
system.mem_ctrls.avgBusLat                    5000.00                       # Average bus latency per DRAM burst
system.mem_ctrls.avgMemAccLat                32428.12                       # Average memory access latency per DRAM burst
system.mem_ctrls.numRdRetry                         0                       # Number of times read queue was full causing retry
system.mem_ctrls.numWrRetry                         0                       # Number of times write queue was full causing retry
system.mem_ctrls.readRowHits                   103833                       # Number of row buffer hits during reads
system.mem_ctrls.writeRowHits                   80179                       # Number of row buffer hits during writes
system.mem_ctrls.readRowHitRate                 70.83                       # Row buffer hit rate for reads
system.mem_ctrls.writeRowHitRate                67.43                       # Row buffer hit rate for writes
system.mem_ctrls.readPktSize::0                     0                       # Read request sizes (log2)
system.mem_ctrls.readPktSize::1                     0                       # Read request sizes (log2)
system.mem_ctrls.readPktSize::2                     0                       # Read request sizes (log2)
system.mem_ctrls.readPktSize::3                     0                       # Read request sizes (log2)
system.mem_ctrls.readPktSize::4                     0                       # Read request sizes (log2)
system.mem_ctrls.readPktSize::5                     0                       # Read request sizes (log2)
system.mem_ctrls.readPktSize::6                156919                       # Read request sizes (log2)
system.mem_ctrls.writePktSize::0                    0                       # Write request sizes (log2)
system.mem_ctrls.writePktSize::1                    0                       # Write request sizes (log2)
system.mem_ctrls.writePktSize::2                    0                       # Write request sizes (log2)
system.mem_ctrls.writePktSize::3                    0                       # Write request sizes (log2)
system.mem_ctrls.writePktSize::4                    0                       # Write request sizes (log2)
system.mem_ctrls.writePktSize::5                    0                       # Write request sizes (log2)
system.mem_ctrls.writePktSize::6               121172                       # Write request sizes (log2)
system.mem_ctrls.rdQLenPdf::0                  134148                       # What read queue length does an incoming req see
system.mem_ctrls.rdQLenPdf::1                   12136                       # What read queue length does an incoming req see
system.mem_ctrls.rdQLenPdf::2                     317                       # What read queue length does an incoming req see
system.mem_ctrls.rdQLenPdf::3                       0                       # What read queue length does an incoming req see
system.mem_ctrls.rdQLenPdf::4                       0                       # What read queue length does an incoming req see
system.mem_ctrls.rdQLenPdf::5                       0                       # What read queue length does an incoming req see
system.mem_ctrls.rdQLenPdf::6                       0                       # What read queue length does an incoming req see
system.mem_ctrls.rdQLenPdf::7                       0                       # What read queue length does an incoming req see
system.mem_ctrls.rdQLenPdf::8                       0                       # What read queue length does an incoming req see
system.mem_ctrls.rdQLenPdf::9                       0                       # What read queue length does an incoming req see
system.mem_ctrls.rdQLenPdf::10                      0                       # What read queue length does an incoming req see
system.mem_ctrls.rdQLenPdf::11                      0                       # What read queue length does an incoming req see
system.mem_ctrls.rdQLenPdf::12                      0                       # What read queue length does an incoming req see
system.mem_ctrls.rdQLenPdf::13                      0                       # What read queue length does an incoming req see
system.mem_ctrls.rdQLenPdf::14                      0                       # What read queue length does an incoming req see
system.mem_ctrls.rdQLenPdf::15                      0                       # What read queue length does an incoming req see
system.mem_ctrls.rdQLenPdf::16                      0                       # What read queue length does an incoming req see
system.mem_ctrls.rdQLenPdf::17                      0                       # What read queue length does an incoming req see
system.mem_ctrls.rdQLenPdf::18                      0                       # What read queue length does an incoming req see
system.mem_ctrls.rdQLenPdf::19                      0                       # What read queue length does an incoming req see
system.mem_ctrls.rdQLenPdf::20                      0                       # What read queue length does an incoming req see
system.mem_ctrls.rdQLenPdf::21                      0                       # What read queue length does an incoming req see
system.mem_ctrls.rdQLenPdf::22                      0                       # What read queue length does an incoming req see
system.mem_ctrls.rdQLenPdf::23                      0                       # What read queue length does an incoming req see
system.mem_ctrls.rdQLenPdf::24                      0                       # What read queue length does an incoming req see
system.mem_ctrls.rdQLenPdf::25                      0                       # What read queue length does an incoming req see
system.mem_ctrls.rdQLenPdf::26                      0                       # What read queue length does an incoming req see
system.mem_ctrls.rdQLenPdf::27                      0                       # What read queue length does an incoming req see
system.mem_ctrls.rdQLenPdf::28                      0                       # What read queue length does an incoming req see
system.mem_ctrls.rdQLenPdf::29                      0                       # What read queue length does an incoming req see
system.mem_ctrls.rdQLenPdf::30                      0                       # What read queue length does an incoming req see
system.mem_ctrls.rdQLenPdf::31                      0                       # What read queue length does an incoming req see
system.mem_ctrls.wrQLenPdf::0                       1                       # What write queue length does an incoming req see
system.mem_ctrls.wrQLenPdf::1                       1                       # What write queue length does an incoming req see
system.mem_ctrls.wrQLenPdf::2                       1                       # What write queue length does an incoming req see
system.mem_ctrls.wrQLenPdf::3                       1                       # What write queue length does an incoming req see
system.mem_ctrls.wrQLenPdf::4                       1                       # What write queue length does an incoming req see
system.mem_ctrls.wrQLenPdf::5                       1                       # What write queue length does an incoming req see
system.mem_ctrls.wrQLenPdf::6                       1                       # What write queue length does an incoming req see
system.mem_ctrls.wrQLenPdf::7                       1                       # What write queue length does an incoming req see
system.mem_ctrls.wrQLenPdf::8                       1                       # What write queue length does an incoming req see
system.mem_ctrls.wrQLenPdf::9                       1                       # What write queue length does an incoming req see
system.mem_ctrls.wrQLenPdf::10                      1                       # What write queue length does an incoming req see
system.mem_ctrls.wrQLenPdf::11                      1                       # What write queue length does an incoming req see
system.mem_ctrls.wrQLenPdf::12                      1                       # What write queue length does an incoming req see
system.mem_ctrls.wrQLenPdf::13                      1                       # What write queue length does an incoming req see
system.mem_ctrls.wrQLenPdf::14                      1                       # What write queue length does an incoming req see
system.mem_ctrls.wrQLenPdf::15                    657                       # What write queue length does an incoming req see
system.mem_ctrls.wrQLenPdf::16                    747                       # What write queue length does an incoming req see
system.mem_ctrls.wrQLenPdf::17                   6700                       # What write queue length does an incoming req see
system.mem_ctrls.wrQLenPdf::18                   7330                       # What write queue length does an incoming req see
system.mem_ctrls.wrQLenPdf::19                   7429                       # What write queue length does an incoming req see
system.mem_ctrls.wrQLenPdf::20                   7406                       # What write queue length does an incoming req see
system.mem_ctrls.wrQLenPdf::21                   7389                       # What write queue length does an incoming req see
system.mem_ctrls.wrQLenPdf::22                   7483                       # What write queue length does an incoming req see
system.mem_ctrls.wrQLenPdf::23                   7410                       # What write queue length does an incoming req see
system.mem_ctrls.wrQLenPdf::24                   7427                       # What write queue length does an incoming req see
system.mem_ctrls.wrQLenPdf::25                   7379                       # What write queue length does an incoming req see
system.mem_ctrls.wrQLenPdf::26                   7442                       # What write queue length does an incoming req see
system.mem_ctrls.wrQLenPdf::27                   7377                       # What write queue length does an incoming req see
system.mem_ctrls.wrQLenPdf::28                   7365                       # What write queue length does an incoming req see
system.mem_ctrls.wrQLenPdf::29                   7358                       # What write queue length does an incoming req see
system.mem_ctrls.wrQLenPdf::30                   7328                       # What write queue length does an incoming req see
system.mem_ctrls.wrQLenPdf::31                   7325                       # What write queue length does an incoming req see
system.mem_ctrls.wrQLenPdf::32                   7322                       # What write queue length does an incoming req see
system.mem_ctrls.wrQLenPdf::33                     17                       # What write queue length does an incoming req see
system.mem_ctrls.wrQLenPdf::34                      3                       # What write queue length does an incoming req see
system.mem_ctrls.wrQLenPdf::35                      0                       # What write queue length does an incoming req see
system.mem_ctrls.wrQLenPdf::36                      0                       # What write queue length does an incoming req see
system.mem_ctrls.wrQLenPdf::37                      0                       # What write queue length does an incoming req see
system.mem_ctrls.wrQLenPdf::38                      0                       # What write queue length does an incoming req see
system.mem_ctrls.wrQLenPdf::39                      0                       # What write queue length does an incoming req see
system.mem_ctrls.wrQLenPdf::40                      0                       # What write queue length does an incoming req see
system.mem_ctrls.wrQLenPdf::41                      0                       # What write queue length does an incoming req see
system.mem_ctrls.wrQLenPdf::42                      0                       # What write queue length does an incoming req see
system.mem_ctrls.wrQLenPdf::43                      0                       # What write queue length does an incoming req see
system.mem_ctrls.wrQLenPdf::44                      0                       # What write queue length does an incoming req see
system.mem_ctrls.wrQLenPdf::45                      0                       # What write queue length does an incoming req see
system.mem_ctrls.wrQLenPdf::46                      0                       # What write queue length does an incoming req see
system.mem_ctrls.wrQLenPdf::47                      0                       # What write queue length does an incoming req see
system.mem_ctrls.wrQLenPdf::48                      0                       # What write queue length does an incoming req see
system.mem_ctrls.wrQLenPdf::49                      0                       # What write queue length does an incoming req see
system.mem_ctrls.wrQLenPdf::50                      0                       # What write queue length does an incoming req see
system.mem_ctrls.wrQLenPdf::51                      0                       # What write queue length does an incoming req see
system.mem_ctrls.wrQLenPdf::52                      0                       # What write queue length does an incoming req see
system.mem_ctrls.wrQLenPdf::53                      0                       # What write queue length does an incoming req see
system.mem_ctrls.wrQLenPdf::54                      0                       # What write queue length does an incoming req see
system.mem_ctrls.wrQLenPdf::55                      0                       # What write queue length does an incoming req see
system.mem_ctrls.wrQLenPdf::56                      0                       # What write queue length does an incoming req see
system.mem_ctrls.wrQLenPdf::57                      0                       # What write queue length does an incoming req see
system.mem_ctrls.wrQLenPdf::58                      0                       # What write queue length does an incoming req see
system.mem_ctrls.wrQLenPdf::59                      0                       # What write queue length does an incoming req see
system.mem_ctrls.wrQLenPdf::60                      0                       # What write queue length does an incoming req see
system.mem_ctrls.wrQLenPdf::61                      0                       # What write queue length does an incoming req see
system.mem_ctrls.wrQLenPdf::62                      0                       # What write queue length does an incoming req see
system.mem_ctrls.wrQLenPdf::63                      0                       # What write queue length does an incoming req see
system.mem_ctrls.bytesPerActivate::samples        81456                       # Bytes accessed per row activation
system.mem_ctrls.bytesPerActivate::mean    208.557847                       # Bytes accessed per row activation
system.mem_ctrls.bytesPerActivate::gmean   140.353346                       # Bytes accessed per row activation
system.mem_ctrls.bytesPerActivate::stdev   225.047938                       # Bytes accessed per row activation
system.mem_ctrls.bytesPerActivate::0-127        34326     42.14%     42.14% # Bytes accessed per row activation
system.mem_ctrls.bytesPerActivate::128-255        24473     30.04%     72.18% # Bytes accessed per row activation
system.mem_ctrls.bytesPerActivate::256-383         9896     12.15%     84.33% # Bytes accessed per row activation
system.mem_ctrls.bytesPerActivate::384-511         4649      5.71%     90.04% # Bytes accessed per row activation
system.mem_ctrls.bytesPerActivate::512-639         2381      2.92%     92.96% # Bytes accessed per row activation
system.mem_ctrls.bytesPerActivate::640-767         1397      1.72%     94.68% # Bytes accessed per row activation
system.mem_ctrls.bytesPerActivate::768-895          919      1.13%     95.81% # Bytes accessed per row activation
system.mem_ctrls.bytesPerActivate::896-1023          629      0.77%     96.58% # Bytes accessed per row activation
system.mem_ctrls.bytesPerActivate::1024-1151         2786      3.42%    100.00% # Bytes accessed per row activation
system.mem_ctrls.bytesPerActivate::total        81456                       # Bytes accessed per row activation
system.mem_ctrls.rdPerTurnAround::samples         7321                       # Reads before turning the bus around for writes
system.mem_ctrls.rdPerTurnAround::mean      20.024723                       # Reads before turning the bus around for writes
system.mem_ctrls.rdPerTurnAround::gmean     18.396365                       # Reads before turning the bus around for writes
system.mem_ctrls.rdPerTurnAround::stdev     12.763980                       # Reads before turning the bus around for writes
system.mem_ctrls.rdPerTurnAround::0-15           1297     17.72%     17.72% # Reads before turning the bus around for writes
system.mem_ctrls.rdPerTurnAround::16-31          5554     75.86%     93.58% # Reads before turning the bus around for writes
system.mem_ctrls.rdPerTurnAround::32-47           272      3.72%     97.30% # Reads before turning the bus around for writes
system.mem_ctrls.rdPerTurnAround::48-63            98      1.34%     98.63% # Reads before turning the bus around for writes
system.mem_ctrls.rdPerTurnAround::64-79            40      0.55%     99.18% # Reads before turning the bus around for writes
system.mem_ctrls.rdPerTurnAround::80-95            20      0.27%     99.45% # Reads before turning the bus around for writes
system.mem_ctrls.rdPerTurnAround::96-111           14      0.19%     99.64% # Reads before turning the bus around for writes
system.mem_ctrls.rdPerTurnAround::112-127            7      0.10%     99.74% # Reads before turning the bus around for writes
system.mem_ctrls.rdPerTurnAround::128-143           10      0.14%     99.88% # Reads before turning the bus around for writes
system.mem_ctrls.rdPerTurnAround::144-159            5      0.07%     99.95% # Reads before turning the bus around for writes
system.mem_ctrls.rdPerTurnAround::160-175            1      0.01%     99.96% # Reads before turning the bus around for writes
system.mem_ctrls.rdPerTurnAround::176-191            1      0.01%     99.97% # Reads before turning the bus around for writes
system.mem_ctrls.rdPerTurnAround::256-271            1      0.01%     99.99% # Reads before turning the bus around for writes
system.mem_ctrls.rdPerTurnAround::400-415            1      0.01%    100.00% # Reads before turning the bus around for writes
system.mem_ctrls.rdPerTurnAround::total          7321                       # Reads before turning the bus around for writes
system.mem_ctrls.wrPerTurnAround::samples         7320                       # Writes before turning the bus around for reads
system.mem_ctrls.wrPerTurnAround::mean      16.239891                       # Writes before turning the bus around for reads
system.mem_ctrls.wrPerTurnAround::gmean     16.224362                       # Writes before turning the bus around for reads
system.mem_ctrls.wrPerTurnAround::stdev      0.743212                       # Writes before turning the bus around for reads
system.mem_ctrls.wrPerTurnAround::16             6543     89.39%     89.39% # Writes before turning the bus around for reads
system.mem_ctrls.wrPerTurnAround::17               89      1.22%     90.60% # Writes before turning the bus around for reads
system.mem_ctrls.wrPerTurnAround::18              474      6.48%     97.08% # Writes before turning the bus around for reads
system.mem_ctrls.wrPerTurnAround::19              144      1.97%     99.04% # Writes before turning the bus around for reads
system.mem_ctrls.wrPerTurnAround::20               63      0.86%     99.90% # Writes before turning the bus around for reads
system.mem_ctrls.wrPerTurnAround::21                7      0.10%    100.00% # Writes before turning the bus around for reads
system.mem_ctrls.wrPerTurnAround::total          7320                       # Writes before turning the bus around for reads
system.mem_ctrls.bytesReadDRAM                9382464                       # Total number of bytes read from DRAM
system.mem_ctrls.bytesReadWrQ                  660352                       # Total number of bytes read from write queue
system.mem_ctrls.bytesWritten                 7608448                       # Total number of bytes written to DRAM
system.mem_ctrls.bytesReadSys                10042816                       # Total read bytes from the system interface side
system.mem_ctrls.bytesWrittenSys              7755008                       # Total written bytes from the system interface side
system.mem_ctrls.avgRdBW                       790.91                       # Average DRAM read bandwidth in MiByte/s
system.mem_ctrls.avgWrBW                       641.36                       # Average achieved write bandwidth in MiByte/s
system.mem_ctrls.avgRdBWSys                    846.57                       # Average system read bandwidth in MiByte/s
system.mem_ctrls.avgWrBWSys                    653.72                       # Average system write bandwidth in MiByte/s
system.mem_ctrls.peakBW                      12800.00                       # Theoretical peak bandwidth in MiByte/s
system.mem_ctrls.busUtil                        11.19                       # Data bus utilization in percentage
system.mem_ctrls.busUtilRead                     6.18                       # Data bus utilization in percentage for reads
system.mem_ctrls.busUtilWrite                    5.01                       # Data bus utilization in percentage for writes
system.mem_ctrls.totGap                   11862929500                       # Total gap between requests
system.mem_ctrls.avgGap                      42658.44                       # Average gap between requests
system.mem_ctrls.masterReadBytes::.cpu.inst      4945600                       # Per-master bytes read from memory
system.mem_ctrls.masterReadBytes::.cpu.data      4436864                       # Per-master bytes read from memory
system.mem_ctrls.masterWriteBytes::.writebacks      7608448                       # Per-master bytes write to memory
system.mem_ctrls.masterReadRate::.cpu.inst 416895161.985426127911                       # Per-master bytes read from memory rate (Bytes/sec)
system.mem_ctrls.masterReadRate::.cpu.data 374010663.213220953941                       # Per-master bytes read from memory rate (Bytes/sec)
[...]
system.cpu.icache.tags.warmup_cycle                 0                       # Cycle when the warmup percentage was hit.
system.cpu.icache.tags.occ_blocks::.cpu.inst   511.985351                       # Average occupied blocks per requestor
system.cpu.icache.tags.occ_percent::.cpu.inst     0.999971                       # Average percentage of cache occupancy
system.cpu.icache.tags.occ_percent::total     0.999971                       # Average percentage of cache occupancy
system.cpu.icache.tags.occ_task_id_blocks::1024          512                       # Occupied blocks per task id
system.cpu.icache.tags.age_task_id_blocks_1024::0           78                       # Occupied blocks per task id
system.cpu.icache.tags.age_task_id_blocks_1024::1           29                       # Occupied blocks per task id
system.cpu.icache.tags.age_task_id_blocks_1024::2          401                       # Occupied blocks per task id
system.cpu.icache.tags.age_task_id_blocks_1024::3            4                       # Occupied blocks per task id
system.cpu.icache.tags.occ_task_id_percent::1024            1                       # Percentage of cache occupancy per task id
system.cpu.icache.tags.tag_accesses           2070542                       # Number of tag accesses
system.cpu.icache.tags.data_accesses          2070542                       # Number of data accesses
system.cpu.dcache.pwrStateResidencyTicks::UNDEFINED  10559449000                       # Cumulative time (in ticks) in various power states
system.cpu.dcache.demand_hits::.cpu.data       749276                       # number of demand (read+write) hits
system.cpu.dcache.demand_hits::total           749276                       # number of demand (read+write) hits
system.cpu.dcache.overall_hits::.cpu.data       749276                       # number of overall hits
system.cpu.dcache.overall_hits::total          749276                       # number of overall hits
system.cpu.dcache.demand_misses::.cpu.data        51450                       # number of demand (read+write) misses
system.cpu.dcache.demand_misses::total          51450                       # number of demand (read+write) misses
system.cpu.dcache.overall_misses::.cpu.data        51450                       # number of overall misses
system.cpu.dcache.overall_misses::total         51450                       # number of overall misses
system.cpu.dcache.demand_miss_latency::.cpu.data   3371628500                       # number of demand (read+write) miss cycles
system.cpu.dcache.demand_miss_latency::total   3371628500                       # number of demand (read+write) miss cycles
system.cpu.dcache.overall_miss_latency::.cpu.data   3371628500                       # number of overall miss cycles
system.cpu.dcache.overall_miss_latency::total   3371628500                       # number of overall miss cycles
system.cpu.dcache.demand_accesses::.cpu.data       800726                       # number of demand (read+write) accesses
system.cpu.dcache.demand_accesses::total       800726                       # number of demand (read+write) accesses
system.cpu.dcache.overall_accesses::.cpu.data       800726                       # number of overall (read+write) accesses
system.cpu.dcache.overall_accesses::total       800726                       # number of overall (read+write) accesses
system.cpu.dcache.demand_miss_rate::.cpu.data     0.064254                       # miss rate for demand accesses
system.cpu.dcache.demand_miss_rate::total     0.064254                       # miss rate for demand accesses
system.cpu.dcache.overall_miss_rate::.cpu.data     0.064254                       # miss rate for overall accesses
system.cpu.dcache.overall_miss_rate::total     0.064254                       # miss rate for overall accesses
system.cpu.dcache.demand_avg_miss_latency::.cpu.data 65532.137998                       # average overall miss latency
system.cpu.dcache.demand_avg_miss_latency::total 65532.137998                       # average overall miss latency
system.cpu.dcache.overall_avg_miss_latency::.cpu.data 65532.137998                       # average overall miss latency
system.cpu.dcache.overall_avg_miss_latency::total 65532.137998                       # average overall miss latency
system.cpu.dcache.blocked_cycles::no_mshrs            0                       # number of cycles access was blocked
system.cpu.dcache.blocked_cycles::no_targets            0                       # number of cycles access was blocked
system.cpu.dcache.blocked::no_mshrs                 0                       # number of cycles access was blocked
system.cpu.dcache.blocked::no_targets               0                       # number of cycles access was blocked
system.cpu.dcache.avg_blocked_cycles::no_mshrs          nan                       # average number of cycles each access was blocked
system.cpu.dcache.avg_blocked_cycles::no_targets          nan                       # average number of cycles each access was blocked
system.cpu.dcache.writebacks::.writebacks        19380                       # number of writebacks
system.cpu.dcache.writebacks::total             19380                       # number of writebacks
system.cpu.dcache.demand_mshr_hits::.cpu.data        18214                       # number of demand (read+write) MSHR hits
system.cpu.dcache.demand_mshr_hits::total        18214                       # number of demand (read+write) MSHR hits
system.cpu.dcache.overall_mshr_hits::.cpu.data        18214                       # number of overall MSHR hits
system.cpu.dcache.overall_mshr_hits::total        18214                       # number of overall MSHR hits
system.cpu.dcache.demand_mshr_misses::.cpu.data        33236                       # number of demand (read+write) MSHR misses
system.cpu.dcache.demand_mshr_misses::total        33236                       # number of demand (read+write) MSHR misses
system.cpu.dcache.overall_mshr_misses::.cpu.data        33236                       # number of overall MSHR misses
system.cpu.dcache.overall_mshr_misses::total        33236                       # number of overall MSHR misses
system.cpu.dcache.overall_mshr_uncacheable_misses::.cpu.data         1941                       # number of overall MSHR uncacheable misses
system.cpu.dcache.overall_mshr_uncacheable_misses::total         1941                       # number of overall MSHR uncacheable misses
system.cpu.dcache.demand_mshr_miss_latency::.cpu.data   2180963500                       # number of demand (read+write) MSHR miss cycles
system.cpu.dcache.demand_mshr_miss_latency::total   2180963500                       # number of demand (read+write) MSHR miss cycles
system.cpu.dcache.overall_mshr_miss_latency::.cpu.data   2180963500                       # number of overall MSHR miss cycles
system.cpu.dcache.overall_mshr_miss_latency::total   2180963500                       # number of overall MSHR miss cycles
system.cpu.dcache.overall_mshr_uncacheable_latency::.cpu.data    233720500                       # number of overall MSHR uncacheable cycles
system.cpu.dcache.overall_mshr_uncacheable_latency::total    233720500                       # number of overall MSHR uncacheable cycles
system.cpu.dcache.demand_mshr_miss_rate::.cpu.data     0.041507                       # mshr miss rate for demand accesses
system.cpu.dcache.demand_mshr_miss_rate::total     0.041507                       # mshr miss rate for demand accesses
system.cpu.dcache.overall_mshr_miss_rate::.cpu.data     0.041507                       # mshr miss rate for overall accesses
system.cpu.dcache.overall_mshr_miss_rate::total     0.041507                       # mshr miss rate for overall accesses
system.cpu.dcache.demand_avg_mshr_miss_latency::.cpu.data 65620.516909                       # average overall mshr miss latency
system.cpu.dcache.demand_avg_mshr_miss_latency::total 65620.516909                       # average overall mshr miss latency
system.cpu.dcache.overall_avg_mshr_miss_latency::.cpu.data 65620.516909                       # average overall mshr miss latency
system.cpu.dcache.overall_avg_mshr_miss_latency::total 65620.516909                       # average overall mshr miss latency
system.cpu.dcache.overall_avg_mshr_uncacheable_latency::.cpu.data 120412.416280                       # average overall mshr uncacheable latency
system.cpu.dcache.overall_avg_mshr_uncacheable_latency::total 120412.416280                       # average overall mshr uncacheable latency
system.cpu.dcache.replacements                  33803                       # number of replacements
system.cpu.dcache.ReadReq_hits::.cpu.data       449240                       # number of ReadReq hits
system.cpu.dcache.ReadReq_hits::total          449240                       # number of ReadReq hits
system.cpu.dcache.ReadReq_misses::.cpu.data        21583                       # number of ReadReq misses
system.cpu.dcache.ReadReq_misses::total         21583                       # number of ReadReq misses
system.cpu.dcache.ReadReq_miss_latency::.cpu.data   1523203500                       # number of ReadReq miss cycles
system.cpu.dcache.ReadReq_miss_latency::total   1523203500                       # number of ReadReq miss cycles
system.cpu.dcache.ReadReq_accesses::.cpu.data       470823                       # number of ReadReq accesses(hits+misses)
system.cpu.dcache.ReadReq_accesses::total       470823                       # number of ReadReq accesses(hits+misses)
system.cpu.dcache.ReadReq_miss_rate::.cpu.data     0.045841                       # miss rate for ReadReq accesses
system.cpu.dcache.ReadReq_miss_rate::total     0.045841                       # miss rate for ReadReq accesses
system.cpu.dcache.ReadReq_avg_miss_latency::.cpu.data 70574.225085                       # average ReadReq miss latency
system.cpu.dcache.ReadReq_avg_miss_latency::total 70574.225085                       # average ReadReq miss latency
system.cpu.dcache.ReadReq_mshr_hits::.cpu.data         3763                       # number of ReadReq MSHR hits
system.cpu.dcache.ReadReq_mshr_hits::total         3763                       # number of ReadReq MSHR hits
system.cpu.dcache.ReadReq_mshr_misses::.cpu.data        17820                       # number of ReadReq MSHR misses
system.cpu.dcache.ReadReq_mshr_misses::total        17820                       # number of ReadReq MSHR misses
system.cpu.dcache.ReadReq_mshr_uncacheable::.cpu.data         1147                       # number of ReadReq MSHR uncacheable
system.cpu.dcache.ReadReq_mshr_uncacheable::total         1147                       # number of ReadReq MSHR uncacheable
system.cpu.dcache.ReadReq_mshr_miss_latency::.cpu.data   1258865000                       # number of ReadReq MSHR miss cycles
system.cpu.dcache.ReadReq_mshr_miss_latency::total   1258865000                       # number of ReadReq MSHR miss cycles
system.cpu.dcache.ReadReq_mshr_uncacheable_latency::.cpu.data    233720500                       # number of ReadReq MSHR uncacheable cycles
system.cpu.dcache.ReadReq_mshr_uncacheable_latency::total    233720500                       # number of ReadReq MSHR uncacheable cycles
system.cpu.dcache.ReadReq_mshr_miss_rate::.cpu.data     0.037849                       # mshr miss rate for ReadReq accesses
system.cpu.dcache.ReadReq_mshr_miss_rate::total     0.037849                       # mshr miss rate for ReadReq accesses
system.cpu.dcache.ReadReq_avg_mshr_miss_latency::.cpu.data 70643.378227                       # average ReadReq mshr miss latency
system.cpu.dcache.ReadReq_avg_mshr_miss_latency::total 70643.378227                       # average ReadReq mshr miss latency
system.cpu.dcache.ReadReq_avg_mshr_uncacheable_latency::.cpu.data 203766.782912                       # average ReadReq mshr uncacheable latency
system.cpu.dcache.ReadReq_avg_mshr_uncacheable_latency::total 203766.782912                       # average ReadReq mshr uncacheable latency
system.cpu.dcache.WriteReq_hits::.cpu.data       300036                       # number of WriteReq hits
system.cpu.dcache.WriteReq_hits::total         300036                       # number of WriteReq hits
system.cpu.dcache.WriteReq_misses::.cpu.data        29867                       # number of WriteReq misses
system.cpu.dcache.WriteReq_misses::total        29867                       # number of WriteReq misses
system.cpu.dcache.WriteReq_miss_latency::.cpu.data   1848425000                       # number of WriteReq miss cycles
system.cpu.dcache.WriteReq_miss_latency::total   1848425000                       # number of WriteReq miss cycles
system.cpu.dcache.WriteReq_accesses::.cpu.data       329903                       # number of WriteReq accesses(hits+misses)
system.cpu.dcache.WriteReq_accesses::total       329903                       # number of WriteReq accesses(hits+misses)
system.cpu.dcache.WriteReq_miss_rate::.cpu.data     0.090533                       # miss rate for WriteReq accesses
system.cpu.dcache.WriteReq_miss_rate::total     0.090533                       # miss rate for WriteReq accesses
system.cpu.dcache.WriteReq_avg_miss_latency::.cpu.data 61888.539190                       # average WriteReq miss latency
system.cpu.dcache.WriteReq_avg_miss_latency::total 61888.539190                       # average WriteReq miss latency
system.cpu.dcache.WriteReq_mshr_hits::.cpu.data        14451                       # number of WriteReq MSHR hits
system.cpu.dcache.WriteReq_mshr_hits::total        14451                       # number of WriteReq MSHR hits
system.cpu.dcache.WriteReq_mshr_misses::.cpu.data        15416                       # number of WriteReq MSHR misses
system.cpu.dcache.WriteReq_mshr_misses::total        15416                       # number of WriteReq MSHR misses
system.cpu.dcache.WriteReq_mshr_uncacheable::.cpu.data          794                       # number of WriteReq MSHR uncacheable
system.cpu.dcache.WriteReq_mshr_uncacheable::total          794                       # number of WriteReq MSHR uncacheable
system.cpu.dcache.WriteReq_mshr_miss_latency::.cpu.data    922098500                       # number of WriteReq MSHR miss cycles
system.cpu.dcache.WriteReq_mshr_miss_latency::total    922098500                       # number of WriteReq MSHR miss cycles
system.cpu.dcache.WriteReq_mshr_miss_rate::.cpu.data     0.046729                       # mshr miss rate for WriteReq accesses
system.cpu.dcache.WriteReq_mshr_miss_rate::total     0.046729                       # mshr miss rate for WriteReq accesses
system.cpu.dcache.WriteReq_avg_mshr_miss_latency::.cpu.data 59814.381162                       # average WriteReq mshr miss latency
system.cpu.dcache.WriteReq_avg_mshr_miss_latency::total 59814.381162                       # average WriteReq mshr miss latency
system.cpu.dcache.LoadLockedReq_hits::.cpu.data         8531                       # number of LoadLockedReq hits
system.cpu.dcache.LoadLockedReq_hits::total         8531                       # number of LoadLockedReq hits
system.cpu.dcache.LoadLockedReq_misses::.cpu.data          580                       # number of LoadLockedReq misses
system.cpu.dcache.LoadLockedReq_misses::total          580                       # number of LoadLockedReq misses
system.cpu.dcache.LoadLockedReq_miss_latency::.cpu.data     42889500                       # number of LoadLockedReq miss cycles
system.cpu.dcache.LoadLockedReq_miss_latency::total     42889500                       # number of LoadLockedReq miss cycles
system.cpu.dcache.LoadLockedReq_accesses::.cpu.data         9111                       # number of LoadLockedReq accesses(hits+misses)
system.cpu.dcache.LoadLockedReq_accesses::total         9111                       # number of LoadLockedReq accesses(hits+misses)
system.cpu.dcache.LoadLockedReq_miss_rate::.cpu.data     0.063659                       # miss rate for LoadLockedReq accesses
system.cpu.dcache.LoadLockedReq_miss_rate::total     0.063659                       # miss rate for LoadLockedReq accesses
system.cpu.dcache.LoadLockedReq_avg_miss_latency::.cpu.data 73947.413793                       # average LoadLockedReq miss latency
system.cpu.dcache.LoadLockedReq_avg_miss_latency::total 73947.413793                       # average LoadLockedReq miss latency
system.cpu.dcache.LoadLockedReq_mshr_misses::.cpu.data          580                       # number of LoadLockedReq MSHR misses
system.cpu.dcache.LoadLockedReq_mshr_misses::total          580                       # number of LoadLockedReq MSHR misses
system.cpu.dcache.LoadLockedReq_mshr_miss_latency::.cpu.data     42309500                       # number of LoadLockedReq MSHR miss cycles
system.cpu.dcache.LoadLockedReq_mshr_miss_latency::total     42309500                       # number of LoadLockedReq MSHR miss cycles
system.cpu.dcache.LoadLockedReq_mshr_miss_rate::.cpu.data     0.063659                       # mshr miss rate for LoadLockedReq accesses
system.cpu.dcache.LoadLockedReq_mshr_miss_rate::total     0.063659                       # mshr miss rate for LoadLockedReq accesses
system.cpu.dcache.LoadLockedReq_avg_mshr_miss_latency::.cpu.data 72947.413793                       # average LoadLockedReq mshr miss latency
system.cpu.dcache.LoadLockedReq_avg_mshr_miss_latency::total 72947.413793                       # average LoadLockedReq mshr miss latency
system.cpu.dcache.StoreCondReq_hits::.cpu.data         8795                       # number of StoreCondReq hits
system.cpu.dcache.StoreCondReq_hits::total         8795                       # number of StoreCondReq hits
system.cpu.dcache.StoreCondReq_accesses::.cpu.data         8795                       # number of StoreCondReq accesses(hits+misses)
system.cpu.dcache.StoreCondReq_accesses::total         8795                       # number of StoreCondReq accesses(hits+misses)
system.cpu.dcache.tags.pwrStateResidencyTicks::UNDEFINED  10559449000                       # Cumulative time (in ticks) in various power states
system.cpu.dcache.tags.tagsinuse                 1024                       # Cycle average of tags in use
system.cpu.dcache.tags.total_refs              822864                       # Total number of references to valid blocks.
system.cpu.dcache.tags.sampled_refs             34827                       # Sample count of references to valid blocks.
system.cpu.dcache.tags.avg_refs             23.627186                       # Average number of references to valid blocks.
system.cpu.dcache.tags.warmup_cycle                 0                       # Cycle when the warmup percentage was hit.
system.cpu.dcache.tags.occ_blocks::.cpu.data         1024                       # Average occupied blocks per requestor
system.cpu.dcache.tags.occ_percent::.cpu.data            1                       # Average percentage of cache occupancy
system.cpu.dcache.tags.occ_percent::total            1                       # Average percentage of cache occupancy
system.cpu.dcache.tags.occ_task_id_blocks::1024         1024                       # Occupied blocks per task id
system.cpu.dcache.tags.age_task_id_blocks_1024::0           47                       # Occupied blocks per task id
system.cpu.dcache.tags.age_task_id_blocks_1024::1          828                       # Occupied blocks per task id
system.cpu.dcache.tags.age_task_id_blocks_1024::2          141                       # Occupied blocks per task id
system.cpu.dcache.tags.age_task_id_blocks_1024::3            8                       # Occupied blocks per task id
system.cpu.dcache.tags.occ_task_id_percent::1024            1                       # Percentage of cache occupancy per task id
system.cpu.dcache.tags.tag_accesses           1671067                       # Number of tag accesses
system.cpu.dcache.tags.data_accesses          1671067                       # Number of data accesses

---------- End Simulation Statistics   ----------
