
---------- Begin Simulation Statistics ----------
final_tick                               2542121700500                       # Number of ticks from beginning of simulation (restored from checkpoints and never reset)
host_inst_rate                                 231150                       # Simulator instruction rate (inst/s)
host_mem_usage                                 740736                       # Number of bytes of host memory used
host_op_rate                                   231148                       # Simulator op (including micro ops) rate (op/s)
host_seconds                                    18.16                       # Real time elapsed on the host
host_tick_rate                              667020127                       # Simulator tick rate (ticks/s)
sim_freq                                 1000000000000                       # Frequency of simulated ticks
sim_insts                                     4197224                       # Number of instructions simulated
sim_ops                                       4197224                       # Number of ops (including micro ops) simulated
sim_seconds                                  0.012112                       # Number of seconds simulated
sim_ticks                                 12111855500                       # Number of ticks simulated
system.cpu.branchPred.BTBCorrect                    0                       # Number of correct BTB predictions (this stat may not work properly.
system.cpu.branchPred.BTBHitPct             54.481718                       # BTB Hit Percentage
system.cpu.branchPred.BTBHits                  360493                       # Number of BTB hits
system.cpu.branchPred.BTBLookups               661677                       # Number of BTB lookups
system.cpu.branchPred.RASInCorrect               2673                       # Number of incorrect RAS predictions.
system.cpu.branchPred.condIncorrect            110340                       # Number of conditional branches incorrect
system.cpu.branchPred.condPredicted            980175                       # Number of conditional branches predicted
system.cpu.branchPred.indirectHits              26095                       # Number of indirect target hits.
system.cpu.branchPred.indirectLookups          151640                       # Number of indirect predictor lookups.
system.cpu.branchPred.indirectMisses           125545                       # Number of indirect misses.
system.cpu.branchPred.lookups                 1183154                       # Number of BP lookups
system.cpu.branchPred.usedRAS                   71120                       # Number of times the RAS was used to get a target.
system.cpu.branchPredindirectMispredicted        27182                       # Number of mispredicted indirect branches.
system.cpu.committedInsts                     4197224                       # Number of instructions committed
system.cpu.committedOps                       4197224                       # Number of ops (including micro ops) committed
system.cpu.cpi                               5.768084                       # CPI: cycles per instruction
system.cpu.discardedOps                        315139                       # Number of ops (including micro ops) which were discarded before commit
system.cpu.dtb.data_accesses                   618753                       # DTB accesses
system.cpu.dtb.data_acv                           130                       # DTB access violations
system.cpu.dtb.data_hits                      1477324                       # DTB hits
system.cpu.dtb.data_misses                       8379                       # DTB misses
system.cpu.dtb.fetch_accesses                       0                       # ITB accesses
system.cpu.dtb.fetch_acv                            0                       # ITB acv
system.cpu.dtb.fetch_hits                           0                       # ITB hits
system.cpu.dtb.fetch_misses                         0                       # ITB misses
system.cpu.dtb.read_accesses                   416650                       # DTB read accesses
system.cpu.dtb.read_acv                            43                       # DTB read access violations
system.cpu.dtb.read_hits                       873121                       # DTB read hits
system.cpu.dtb.read_misses                       7503                       # DTB read misses
system.cpu.dtb.write_accesses                  202103                       # DTB write accesses
system.cpu.dtb.write_acv                           87                       # DTB write access violations
system.cpu.dtb.write_hits                      604203                       # DTB write hits
system.cpu.dtb.write_misses                       876                       # DTB write misses
system.cpu.fetch2.amo_instructions                  0                       # Number of memory atomic instructions successfully decoded
system.cpu.fetch2.fp_instructions               18268                       # Number of floating point instructions successfully decoded
system.cpu.fetch2.int_instructions            3694627                       # Number of integer instructions successfully decoded
system.cpu.fetch2.load_instructions           1153632                       # Number of memory load instructions successfully decoded
system.cpu.fetch2.store_instructions           686766                       # Number of memory store instructions successfully decoded
system.cpu.fetch2.vec_instructions                  0                       # Number of SIMD instructions successfully decoded
system.cpu.idleCycles                        17028289                       # Total number of cycles that the object has spent stopped
system.cpu.ipc                               0.173368                       # IPC: instructions per cycle
system.cpu.itb.data_accesses                        0                       # DTB accesses
system.cpu.itb.data_acv                             0                       # DTB access violations
system.cpu.itb.data_hits                            0                       # DTB hits
system.cpu.itb.data_misses                          0                       # DTB misses
system.cpu.itb.fetch_accesses                  979709                       # ITB accesses
system.cpu.itb.fetch_acv                          334                       # ITB acv
system.cpu.itb.fetch_hits                      974981                       # ITB hits
system.cpu.itb.fetch_misses                      4728                       # ITB misses
system.cpu.itb.read_accesses                        0                       # DTB read accesses
system.cpu.itb.read_acv                             0                       # DTB read access violations
system.cpu.itb.read_hits                            0                       # DTB read hits
system.cpu.itb.read_misses                          0                       # DTB read misses
system.cpu.itb.write_accesses                       0                       # DTB write accesses
system.cpu.itb.write_acv                            0                       # DTB write access violations
system.cpu.itb.write_hits                           0                       # DTB write hits
system.cpu.itb.write_misses                         0                       # DTB write misses
system.cpu.kern.callpal::swpctx                   574      9.43%      9.43% # number of callpals executed
system.cpu.kern.callpal::tbi                       25      0.41%      9.84% # number of callpals executed
system.cpu.kern.callpal::swpipl                  4220     69.34%     79.18% # number of callpals executed
system.cpu.kern.callpal::rdps                      50      0.82%     80.00% # number of callpals executed
system.cpu.kern.callpal::wrusp                      4      0.07%     80.07% # number of callpals executed
system.cpu.kern.callpal::rdusp                      3      0.05%     80.12% # number of callpals executed
system.cpu.kern.callpal::rti                      897     14.74%     94.86% # number of callpals executed
system.cpu.kern.callpal::callsys                  235      3.86%     98.72% # number of callpals executed
system.cpu.kern.callpal::imb                       78      1.28%    100.00% # number of callpals executed
system.cpu.kern.callpal::total                   6086                       # number of callpals executed
system.cpu.kern.inst.arm                            0                       # number of arm instructions executed
system.cpu.kern.inst.hwrei                      14430                       # number of hwrei instructions executed
system.cpu.kern.inst.quiesce                        9                       # number of quiesce instructions executed
system.cpu.kern.ipl_count::0                     2430     47.32%     47.32% # number of times we switched to this ipl
system.cpu.kern.ipl_count::21                       5      0.10%     47.42% # number of times we switched to this ipl
system.cpu.kern.ipl_count::22                      13      0.25%     47.67% # number of times we switched to this ipl
system.cpu.kern.ipl_count::31                    2687     52.33%    100.00% # number of times we switched to this ipl
system.cpu.kern.ipl_count::total                 5135                       # number of times we switched to this ipl
system.cpu.kern.ipl_good::0                      2417     49.81%     49.81% # number of times we switched to this ipl from a different ipl
system.cpu.kern.ipl_good::21                        5      0.10%     49.92% # number of times we switched to this ipl from a different ipl
system.cpu.kern.ipl_good::22                       13      0.27%     50.19% # number of times we switched to this ipl from a different ipl
system.cpu.kern.ipl_good::31                     2417     49.81%    100.00% # number of times we switched to this ipl from a different ipl
system.cpu.kern.ipl_good::total                  4852                       # number of times we switched to this ipl from a different ipl
system.cpu.kern.ipl_ticks::0              11168047000     92.17%     92.17% # number of cycles we spent at this ipl
system.cpu.kern.ipl_ticks::21                 9016500      0.07%     92.25% # number of cycles we spent at this ipl
system.cpu.kern.ipl_ticks::22                19421000      0.16%     92.41% # number of cycles we spent at this ipl
system.cpu.kern.ipl_ticks::31               919667500      7.59%    100.00% # number of cycles we spent at this ipl
system.cpu.kern.ipl_ticks::total          12116152000                       # number of cycles we spent at this ipl
system.cpu.kern.ipl_used::0                  0.994650                       # fraction of swpipl calls that actually changed the ipl
system.cpu.kern.ipl_used::21                        1                       # fraction of swpipl calls that actually changed the ipl
system.cpu.kern.ipl_used::22                        1                       # fraction of swpipl calls that actually changed the ipl
system.cpu.kern.ipl_used::31                 0.899516                       # fraction of swpipl calls that actually changed the ipl
system.cpu.kern.ipl_used::total              0.944888                       # fraction of swpipl calls that actually changed the ipl
system.cpu.kern.mode_good::kernel                 870                      
system.cpu.kern.mode_good::user                   870                      
system.cpu.kern.mode_good::idle                     0                      
system.cpu.kern.mode_switch::kernel              1471                       # number of protection mode switches
system.cpu.kern.mode_switch::user                 870                       # number of protection mode switches
system.cpu.kern.mode_switch::idle                   0                       # number of protection mode switches
system.cpu.kern.mode_switch_good::kernel     0.591434                       # fraction of useful protection mode switches
system.cpu.kern.mode_switch_good::user              1                       # fraction of useful protection mode switches
system.cpu.kern.mode_switch_good::idle            nan                       # fraction of useful protection mode switches
system.cpu.kern.mode_switch_good::total      0.743272                       # fraction of useful protection mode switches
system.cpu.kern.mode_ticks::kernel         8166968500     67.41%     67.41% # number of ticks spent at the given mode
system.cpu.kern.mode_ticks::user           3949183500     32.59%    100.00% # number of ticks spent at the given mode
system.cpu.kern.mode_ticks::idle                    0      0.00%    100.00% # number of ticks spent at the given mode
system.cpu.kern.swap_context                      574                       # number of times the context was actually changed
system.cpu.numCycles                         24209939                       # number of cpu cycles simulated
system.cpu.numFetchSuspends                         9                       # Number of times Execute suspended instruction fetching
system.cpu.numWorkItemsCompleted                    0                       # number of work items this cpu completed
system.cpu.numWorkItemsStarted                      0                       # number of work items this cpu started
system.cpu.op_class_0::No_OpClass               85423      2.04%      2.04% # Class of committed instruction
system.cpu.op_class_0::IntAlu                 2542186     60.57%     62.60% # Class of committed instruction
system.cpu.op_class_0::IntMult                   3684      0.09%     62.69% # Class of committed instruction
system.cpu.op_class_0::IntDiv                       0      0.00%     62.69% # Class of committed instruction
system.cpu.op_class_0::FloatAdd                  8286      0.20%     62.89% # Class of committed instruction
system.cpu.op_class_0::FloatCmp                     0      0.00%     62.89% # Class of committed instruction
system.cpu.op_class_0::FloatCvt                     0      0.00%     62.89% # Class of committed instruction
system.cpu.op_class_0::FloatMult                    0      0.00%     62.89% # Class of committed instruction
system.cpu.op_class_0::FloatMultAcc                 0      0.00%     62.89% # Class of committed instruction
system.cpu.op_class_0::FloatDiv                  1593      0.04%     62.93% # Class of committed instruction
system.cpu.op_class_0::FloatMisc                    0      0.00%     62.93% # Class of committed instruction
system.cpu.op_class_0::FloatSqrt                    0      0.00%     62.93% # Class of committed instruction
system.cpu.op_class_0::SimdAdd                      0      0.00%     62.93% # Class of committed instruction
system.cpu.op_class_0::SimdAddAcc                   0      0.00%     62.93% # Class of committed instruction
system.cpu.op_class_0::SimdAlu                      0      0.00%     62.93% # Class of committed instruction
system.cpu.op_class_0::SimdCmp                      0      0.00%     62.93% # Class of committed instruction
system.cpu.op_class_0::SimdCvt                      0      0.00%     62.93% # Class of committed instruction
system.cpu.op_class_0::SimdMisc                     0      0.00%     62.93% # Class of committed instruction
system.cpu.op_class_0::SimdMult                     0      0.00%     62.93% # Class of committed instruction
system.cpu.op_class_0::SimdMultAcc                  0      0.00%     62.93% # Class of committed instruction
system.cpu.op_class_0::SimdShift                    0      0.00%     62.93% # Class of committed instruction
system.cpu.op_class_0::SimdShiftAcc                 0      0.00%     62.93% # Class of committed instruction
system.cpu.op_class_0::SimdDiv                      0      0.00%     62.93% # Class of committed instruction
system.cpu.op_class_0::SimdSqrt                     0      0.00%     62.93% # Class of committed instruction
system.cpu.op_class_0::SimdFloatAdd                 0      0.00%     62.93% # Class of committed instruction
system.cpu.op_class_0::SimdFloatAlu                 0      0.00%     62.93% # Class of committed instruction
system.cpu.op_class_0::SimdFloatCmp                 0      0.00%     62.93% # Class of committed instruction
system.cpu.op_class_0::SimdFloatCvt                 0      0.00%     62.93% # Class of committed instruction
system.cpu.op_class_0::SimdFloatDiv                 0      0.00%     62.93% # Class of committed instruction
system.cpu.op_class_0::SimdFloatMisc                0      0.00%     62.93% # Class of committed instruction
system.cpu.op_class_0::SimdFloatMult                0      0.00%     62.93% # Class of committed instruction
system.cpu.op_class_0::SimdFloatMultAcc             0      0.00%     62.93% # Class of committed instruction
system.cpu.op_class_0::SimdFloatSqrt                0      0.00%     62.93% # Class of committed instruction
system.cpu.op_class_0::SimdReduceAdd                0      0.00%     62.93% # Class of committed instruction
system.cpu.op_class_0::SimdReduceAlu                0      0.00%     62.93% # Class of committed instruction
system.cpu.op_class_0::SimdReduceCmp                0      0.00%     62.93% # Class of committed instruction
system.cpu.op_class_0::SimdFloatReduceAdd            0      0.00%     62.93% # Class of committed instruction
system.cpu.op_class_0::SimdFloatReduceCmp            0      0.00%     62.93% # Class of committed instruction
system.cpu.op_class_0::SimdAes                      0      0.00%     62.93% # Class of committed instruction
system.cpu.op_class_0::SimdAesMix                   0      0.00%     62.93% # Class of committed instruction
system.cpu.op_class_0::SimdSha1Hash                 0      0.00%     62.93% # Class of committed instruction
system.cpu.op_class_0::SimdSha1Hash2                0      0.00%     62.93% # Class of committed instruction
system.cpu.op_class_0::SimdSha256Hash               0      0.00%     62.93% # Class of committed instruction
system.cpu.op_class_0::SimdSha256Hash2              0      0.00%     62.93% # Class of committed instruction
system.cpu.op_class_0::SimdShaSigma2                0      0.00%     62.93% # Class of committed instruction
system.cpu.op_class_0::SimdShaSigma3                0      0.00%     62.93% # Class of committed instruction
system.cpu.op_class_0::SimdPredAlu                  0      0.00%     62.93% # Class of committed instruction
system.cpu.op_class_0::MemRead                 839646     20.00%     82.93% # Class of committed instruction
system.cpu.op_class_0::MemWrite                592758     14.12%     97.05% # Class of committed instruction
system.cpu.op_class_0::FloatMemRead              9988      0.24%     97.29% # Class of committed instruction
system.cpu.op_class_0::FloatMemWrite             8788      0.21%     97.50% # Class of committed instruction
system.cpu.op_class_0::IprAccess               104872      2.50%    100.00% # Class of committed instruction
system.cpu.op_class_0::InstPrefetch                 0      0.00%    100.00% # Class of committed instruction
system.cpu.op_class_0::total                  4197224                       # Class of committed instruction
system.cpu.quiesceCycles                        13772                       # Total number of cycles that CPU has spent quiesced or waiting for an interrupt
system.cpu.tickCycles                         7181650                       # Number of cycles that the object actually ticked
system.disk0.dma_read_bytes                         0                       # Number of bytes transfered via DMA reads (not PRD).
system.disk0.dma_read_full_pages                    0                       # Number of full page size DMA reads (not PRD).
system.disk0.dma_read_txs                           0                       # Number of DMA read transactions (not PRD).
system.disk0.dma_write_bytes                    12288                       # Number of bytes transfered via DMA writes.
system.disk0.dma_write_full_pages                   0                       # Number of full page size DMA writes.
system.disk0.dma_write_txs                          3                       # Number of DMA write transactions.
system.disk2.dma_read_bytes                         0                       # Number of bytes transfered via DMA reads (not PRD).
system.disk2.dma_read_full_pages                    0                       # Number of full page size DMA reads (not PRD).
system.disk2.dma_read_txs                           0                       # Number of DMA read transactions (not PRD).
system.disk2.dma_write_bytes                        0                       # Number of bytes transfered via DMA writes.
system.disk2.dma_write_full_pages                   0                       # Number of full page size DMA writes.
system.disk2.dma_write_txs                          0                       # Number of DMA write transactions.
system.membus.snoop_filter.hit_multi_requests          434                       # Number of requests hitting in the snoop filter with multiple (>1) holders of the requested data.
system.membus.snoop_filter.hit_multi_snoops            0                       # Number of snoops hitting in the snoop filter with multiple (>1) holders of the requested data.
system.membus.snoop_filter.hit_single_requests       157788                       # Number of requests hitting in the snoop filter with a single holder of the requested data.
system.membus.snoop_filter.hit_single_snoops            0                       # Number of snoops hitting in the snoop filter with a single holder of the requested data.
system.membus.snoop_filter.tot_requests        317182                       # Total number of requests made to the snoop filter.
system.membus.snoop_filter.tot_snoops               0                       # Total number of snoops made to the snoop filter.
system.tsunami.ethernet.coalescedRxDesc           nan                       # average number of RxDesc's coalesced into each post
system.tsunami.ethernet.coalescedRxIdle           nan                       # average number of RxIdle's coalesced into each post
system.tsunami.ethernet.coalescedRxOk             nan                       # average number of RxOk's coalesced into each post
system.tsunami.ethernet.coalescedRxOrn            nan                       # average number of RxOrn's coalesced into each post
system.tsunami.ethernet.coalescedSwi              nan                       # average number of Swi's coalesced into each post
system.tsunami.ethernet.coalescedTotal            nan                       # average number of interrupts coalesced into each post
system.tsunami.ethernet.coalescedTxDesc           nan                       # average number of TxDesc's coalesced into each post
system.tsunami.ethernet.coalescedTxIdle           nan                       # average number of TxIdle's coalesced into each post
system.tsunami.ethernet.coalescedTxOk             nan                       # average number of TxOk's coalesced into each post
system.tsunami.ethernet.descDMAReads                0                       # Number of descriptors the device read w/ DMA
system.tsunami.ethernet.descDMAWrites               0                       # Number of descriptors the device wrote w/ DMA
system.tsunami.ethernet.descDmaReadBytes            0                       # number of descriptor bytes read w/ DMA
system.tsunami.ethernet.descDmaWriteBytes            0                       # number of descriptor bytes write w/ DMA
system.tsunami.ethernet.droppedPackets              0                       # number of packets dropped
system.tsunami.ethernet.postedInterrupts            0                       # number of posts to CPU
system.tsunami.ethernet.postedRxDesc                0                       # number of RxDesc interrupts posted to CPU
system.tsunami.ethernet.postedRxIdle                0                       # number of rxIdle interrupts posted to CPU
system.tsunami.ethernet.postedRxOk                  0                       # number of RxOk interrupts posted to CPU
system.tsunami.ethernet.postedRxOrn                 0                       # number of RxOrn posted to CPU
system.tsunami.ethernet.postedSwi                   0                       # number of software interrupts posted to CPU
system.tsunami.ethernet.postedTxDesc                0                       # number of TxDesc interrupts posted to CPU
system.tsunami.ethernet.postedTxIdle                0                       # number of TxIdle interrupts posted to CPU
system.tsunami.ethernet.postedTxOk                  0                       # number of TxOk interrupts posted to CPU
system.tsunami.ethernet.totalRxDesc                 0                       # total number of RxDesc written to ISR
system.tsunami.ethernet.totalRxIdle                 0                       # total number of RxIdle written to ISR
system.tsunami.ethernet.totalRxOk                   0                       # total number of RxOk written to ISR
system.tsunami.ethernet.totalRxOrn                  0                       # total number of RxOrn written to ISR
system.tsunami.ethernet.totalSwi                    0                       # total number of Swi written to ISR
system.tsunami.ethernet.totalTxDesc                 0                       # total number of TxDesc written to ISR
system.tsunami.ethernet.totalTxIdle                 0                       # total number of TxIdle written to ISR
system.tsunami.ethernet.totalTxOk                   0                       # total number of TxOk written to ISR
system.bridge.pwrStateResidencyTicks::UNDEFINED 2542121700500                       # Cumulative time (in ticks) in various power states
system.voltage_domain.voltage                       1                       # Voltage in Volts
system.iocache.pwrStateResidencyTicks::UNDEFINED 2542121700500                       # Cumulative time (in ticks) in various power states
system.iocache.demand_misses::.tsunami.ide          195                       # number of demand (read+write) misses
system.iocache.demand_misses::total               195                       # number of demand (read+write) misses
system.iocache.overall_misses::.tsunami.ide          195                       # number of overall misses
system.iocache.overall_misses::total              195                       # number of overall misses
system.iocache.demand_miss_latency::.tsunami.ide     22723957                       # number of demand (read+write) miss cycles
system.iocache.demand_miss_latency::total     22723957                       # number of demand (read+write) miss cycles
system.iocache.overall_miss_latency::.tsunami.ide     22723957                       # number of overall miss cycles
system.iocache.overall_miss_latency::total     22723957                       # number of overall miss cycles
system.iocache.demand_accesses::.tsunami.ide          195                       # number of demand (read+write) accesses
system.iocache.demand_accesses::total             195                       # number of demand (read+write) accesses
system.iocache.overall_accesses::.tsunami.ide          195                       # number of overall (read+write) accesses
system.iocache.overall_accesses::total            195                       # number of overall (read+write) accesses
system.iocache.demand_miss_rate::.tsunami.ide            1                       # miss rate for demand accesses
system.iocache.demand_miss_rate::total              1                       # miss rate for demand accesses
system.iocache.overall_miss_rate::.tsunami.ide            1                       # miss rate for overall accesses
system.iocache.overall_miss_rate::total             1                       # miss rate for overall accesses
system.iocache.demand_avg_miss_latency::.tsunami.ide 116533.112821                       # average overall miss latency
system.iocache.demand_avg_miss_latency::total 116533.112821                       # average overall miss latency
system.iocache.overall_avg_miss_latency::.tsunami.ide 116533.112821                       # average overall miss latency
system.iocache.overall_avg_miss_latency::total 116533.112821                       # average overall miss latency
system.iocache.blocked_cycles::no_mshrs             0                       # number of cycles access was blocked
system.iocache.blocked_cycles::no_targets            0                       # number of cycles access was blocked
system.iocache.blocked::no_mshrs                    0                       # number of cycles access was blocked
system.iocache.blocked::no_targets                  0                       # number of cycles access was blocked
system.iocache.avg_blocked_cycles::no_mshrs          nan                       # average number of cycles each access was blocked
system.iocache.avg_blocked_cycles::no_targets          nan                       # average number of cycles each access was blocked
system.iocache.writebacks::.writebacks            176                       # number of writebacks
system.iocache.writebacks::total                  176                       # number of writebacks
system.iocache.demand_mshr_misses::.tsunami.ide          195                       # number of demand (read+write) MSHR misses
system.iocache.demand_mshr_misses::total          195                       # number of demand (read+write) MSHR misses
system.iocache.overall_mshr_misses::.tsunami.ide          195                       # number of overall MSHR misses
system.iocache.overall_mshr_misses::total          195                       # number of overall MSHR misses
system.iocache.demand_mshr_miss_latency::.tsunami.ide     12961990                       # number of demand (read+write) MSHR miss cycles
system.iocache.demand_mshr_miss_latency::total     12961990                       # number of demand (read+write) MSHR miss cycles
system.iocache.overall_mshr_miss_latency::.tsunami.ide     12961990                       # number of overall MSHR miss cycles
system.iocache.overall_mshr_miss_latency::total     12961990                       # number of overall MSHR miss cycles
system.iocache.demand_mshr_miss_rate::.tsunami.ide            1                       # mshr miss rate for demand accesses
system.iocache.demand_mshr_miss_rate::total            1                       # mshr miss rate for demand accesses
system.iocache.overall_mshr_miss_rate::.tsunami.ide            1                       # mshr miss rate for overall accesses
system.iocache.overall_mshr_miss_rate::total            1                       # mshr miss rate for overall accesses
system.iocache.demand_avg_mshr_miss_latency::.tsunami.ide 66471.743590                       # average overall mshr miss latency
system.iocache.demand_avg_mshr_miss_latency::total 66471.743590                       # average overall mshr miss latency
system.iocache.overall_avg_mshr_miss_latency::.tsunami.ide 66471.743590                       # average overall mshr miss latency
system.iocache.overall_avg_mshr_miss_latency::total 66471.743590                       # average overall mshr miss latency
system.iocache.replacements                       179                       # number of replacements
system.iocache.ReadReq_misses::.tsunami.ide            3                       # number of ReadReq misses
system.iocache.ReadReq_misses::total                3                       # number of ReadReq misses
system.iocache.ReadReq_miss_latency::.tsunami.ide       349997                       # number of ReadReq miss cycles
system.iocache.ReadReq_miss_latency::total       349997                       # number of ReadReq miss cycles
system.iocache.ReadReq_accesses::.tsunami.ide            3                       # number of ReadReq accesses(hits+misses)
system.iocache.ReadReq_accesses::total              3                       # number of ReadReq accesses(hits+misses)
system.iocache.ReadReq_miss_rate::.tsunami.ide            1                       # miss rate for ReadReq accesses
system.iocache.ReadReq_miss_rate::total             1                       # miss rate for ReadReq accesses
system.iocache.ReadReq_avg_miss_latency::.tsunami.ide 116665.666667                       # average ReadReq miss latency
system.iocache.ReadReq_avg_miss_latency::total 116665.666667                       # average ReadReq miss latency
system.iocache.ReadReq_mshr_misses::.tsunami.ide            3                       # number of ReadReq MSHR misses
system.iocache.ReadReq_mshr_misses::total            3                       # number of ReadReq MSHR misses
system.iocache.ReadReq_mshr_miss_latency::.tsunami.ide       199997                       # number of ReadReq MSHR miss cycles
system.iocache.ReadReq_mshr_miss_latency::total       199997                       # number of ReadReq MSHR miss cycles
system.iocache.ReadReq_mshr_miss_rate::.tsunami.ide            1                       # mshr miss rate for ReadReq accesses
system.iocache.ReadReq_mshr_miss_rate::total            1                       # mshr miss rate for ReadReq accesses
system.iocache.ReadReq_avg_mshr_miss_latency::.tsunami.ide 66665.666667                       # average ReadReq mshr miss latency
system.iocache.ReadReq_avg_mshr_miss_latency::total 66665.666667                       # average ReadReq mshr miss latency
system.iocache.WriteLineReq_misses::.tsunami.ide          192                       # number of WriteLineReq misses
system.iocache.WriteLineReq_misses::total          192                       # number of WriteLineReq misses
system.iocache.WriteLineReq_miss_latency::.tsunami.ide     22373960                       # number of WriteLineReq miss cycles
system.iocache.WriteLineReq_miss_latency::total     22373960                       # number of WriteLineReq miss cycles
system.iocache.WriteLineReq_accesses::.tsunami.ide          192                       # number of WriteLineReq accesses(hits+misses)
system.iocache.WriteLineReq_accesses::total          192                       # number of WriteLineReq accesses(hits+misses)
system.iocache.WriteLineReq_miss_rate::.tsunami.ide            1                       # miss rate for WriteLineReq accesses
system.iocache.WriteLineReq_miss_rate::total            1                       # miss rate for WriteLineReq accesses
system.iocache.WriteLineReq_avg_miss_latency::.tsunami.ide 116531.041667                       # average WriteLineReq miss latency
system.iocache.WriteLineReq_avg_miss_latency::total 116531.041667                       # average WriteLineReq miss latency
system.iocache.WriteLineReq_mshr_misses::.tsunami.ide          192                       # number of WriteLineReq MSHR misses
system.iocache.WriteLineReq_mshr_misses::total          192                       # number of WriteLineReq MSHR misses
system.iocache.WriteLineReq_mshr_miss_latency::.tsunami.ide     12761993                       # number of WriteLineReq MSHR miss cycles
system.iocache.WriteLineReq_mshr_miss_latency::total     12761993                       # number of WriteLineReq MSHR miss cycles
system.iocache.WriteLineReq_mshr_miss_rate::.tsunami.ide            1                       # mshr miss rate for WriteLineReq accesses
system.iocache.WriteLineReq_mshr_miss_rate::total            1                       # mshr miss rate for WriteLineReq accesses
system.iocache.WriteLineReq_avg_mshr_miss_latency::.tsunami.ide 66468.713542                       # average WriteLineReq mshr miss latency
system.iocache.WriteLineReq_avg_mshr_miss_latency::total 66468.713542                       # average WriteLineReq mshr miss latency
system.iocache.tags.pwrStateResidencyTicks::UNDEFINED 2542121700500                       # Cumulative time (in ticks) in various power states
system.iocache.tags.tagsinuse                3.296542                       # Cycle average of tags in use
system.iocache.tags.total_refs                    179                       # Total number of references to valid blocks.
system.iocache.tags.sampled_refs                  179                       # Sample count of references to valid blocks.
system.iocache.tags.avg_refs                        1                       # Average number of references to valid blocks.
system.iocache.tags.warmup_cycle         2539625170000                       # Cycle when the warmup percentage was hit.
system.iocache.tags.occ_blocks::.tsunami.ide     3.296542                       # Average occupied blocks per requestor
system.iocache.tags.occ_percent::.tsunami.ide     0.206034                       # Average percentage of cache occupancy
system.iocache.tags.occ_percent::total       0.206034                       # Average percentage of cache occupancy
system.iocache.tags.occ_task_id_blocks::1023           16                       # Occupied blocks per task id
system.iocache.tags.age_task_id_blocks_1023::3           16                       # Occupied blocks per task id
system.iocache.tags.occ_task_id_percent::1023            1                       # Percentage of cache occupancy per task id
system.iocache.tags.tag_accesses                 1755                       # Number of tag accesses
system.iocache.tags.data_accesses                1755                       # Number of data accesses
system.membus.pwrStateResidencyTicks::UNDEFINED 2542121700500                       # Cumulative time (in ticks) in various power states
system.membus.trans_dist::ReadReq                 108                       # Transaction distribution
system.membus.trans_dist::ReadResp             130352                       # Transaction distribution
system.membus.trans_dist::WriteReq                100                       # Transaction distribution
system.membus.trans_dist::WriteResp               100                       # Transaction distribution
system.membus.trans_dist::WritebackDirty        34908                       # Transaction distribution
system.membus.trans_dist::WritebackClean        88360                       # Transaction distribution
system.membus.trans_dist::CleanEvict            34499                       # Transaction distribution
system.membus.trans_dist::UpgradeReq               15                       # Transaction distribution
system.membus.trans_dist::ReadExReq             28961                       # Transaction distribution
system.membus.trans_dist::ReadExResp            28961                       # Transaction distribution
system.membus.trans_dist::ReadCleanReq          88950                       # Transaction distribution
system.membus.trans_dist::ReadSharedReq         41297                       # Transaction distribution
system.membus.trans_dist::BadAddressError            3                       # Transaction distribution
system.membus.trans_dist::InvalidateReq           192                       # Transaction distribution
system.membus.pkt_count_system.iocache.mem_side::system.mem_ctrls.port          374                       # Packet count per connected master and slave (bytes)
system.membus.pkt_count_system.iocache.mem_side::total          374                       # Packet count per connected master and slave (bytes)
system.membus.pkt_count_system.cpu.icache.mem_side::system.mem_ctrls.port       266196                       # Packet count per connected master and slave (bytes)
system.membus.pkt_count_system.cpu.icache.mem_side::total       266196                       # Packet count per connected master and slave (bytes)
system.membus.pkt_count_system.cpu.dcache.mem_side::system.bridge.slave          416                       # Packet count per connected master and slave (bytes)
system.membus.pkt_count_system.cpu.dcache.mem_side::system.mem_ctrls.port       209747                       # Packet count per connected master and slave (bytes)
system.membus.pkt_count_system.cpu.dcache.mem_side::system.membus.badaddr_responder.pio            6                       # Packet count per connected master and slave (bytes)
system.membus.pkt_count_system.cpu.dcache.mem_side::total       210169                       # Packet count per connected master and slave (bytes)
system.membus.pkt_count::total                 476739                       # Packet count per connected master and slave (bytes)
system.membus.pkt_size_system.iocache.mem_side::system.mem_ctrls.port        11264                       # Cumulative packet size per connected master and slave (bytes)
system.membus.pkt_size_system.iocache.mem_side::total        11264                       # Cumulative packet size per connected master and slave (bytes)
system.membus.pkt_size_system.cpu.icache.mem_side::system.mem_ctrls.port     11343744                       # Cumulative packet size per connected master and slave (bytes)
system.membus.pkt_size_system.cpu.icache.mem_side::total     11343744                       # Cumulative packet size per connected master and slave (bytes)
system.membus.pkt_size_system.cpu.dcache.mem_side::system.bridge.slave          441                       # Cumulative packet size per connected master and slave (bytes)
system.membus.pkt_size_system.cpu.dcache.mem_side::system.mem_ctrls.port      6718976                       # Cumulative packet size per connected master and slave (bytes)
system.membus.pkt_size_system.cpu.dcache.mem_side::total      6719417                       # Cumulative packet size per connected master and slave (bytes)
system.membus.pkt_size::total                18074425                       # Cumulative packet size per connected master and slave (bytes)
system.membus.snoops                               67                       # Total snoops (count)
system.membus.snoopTraffic                       4288                       # Total snoop traffic (bytes)
system.membus.snoop_fanout::samples            159623                       # Request fanout histogram
system.membus.snoop_fanout::mean             0.002725                       # Request fanout histogram
system.membus.snoop_fanout::stdev            0.052132                       # Request fanout histogram
system.membus.snoop_fanout::underflows              0      0.00%      0.00% # Request fanout histogram
system.membus.snoop_fanout::0                  159188     99.73%     99.73% # Request fanout histogram
system.membus.snoop_fanout::1                     435      0.27%    100.00% # Request fanout histogram
system.membus.snoop_fanout::2                       0      0.00%    100.00% # Request fanout histogram
system.membus.snoop_fanout::3                       0      0.00%    100.00% # Request fanout histogram
system.membus.snoop_fanout::overflows               0      0.00%    100.00% # Request fanout histogram
system.membus.snoop_fanout::min_value               0                       # Request fanout histogram
system.membus.snoop_fanout::max_value               1                       # Request fanout histogram
system.membus.snoop_fanout::total              159623                       # Request fanout histogram
system.membus.reqLayer0.occupancy              354000                       # Layer occupancy (ticks)
system.membus.reqLayer0.utilization               0.0                       # Layer utilization (%)
system.membus.reqLayer1.occupancy           833530036                       # Layer occupancy (ticks)
system.membus.reqLayer1.utilization               6.9                       # Layer utilization (%)
system.membus.reqLayer2.occupancy                4500                       # Layer occupancy (ticks)
system.membus.reqLayer2.utilization               0.0                       # Layer utilization (%)
system.membus.respLayer1.occupancy              17997                       # Layer occupancy (ticks)
system.membus.respLayer1.utilization              0.0                       # Layer utilization (%)
system.membus.respLayer3.occupancy          378006000                       # Layer occupancy (ticks)
system.membus.respLayer3.utilization              3.1                       # Layer utilization (%)
system.membus.badaddr_responder.pwrStateResidencyTicks::UNDEFINED 2542121700500                       # Cumulative time (in ticks) in various power states
system.membus.respLayer2.occupancy          471655000                       # Layer occupancy (ticks)
system.membus.respLayer2.utilization              3.9                       # Layer utilization (%)
system.clk_domain.clock                          1000                       # Clock period in ticks
system.tsunami.fake_uart1.pwrStateResidencyTicks::UNDEFINED 2542121700500                       # Cumulative time (in ticks) in various power states
system.tsunami.fake_uart2.pwrStateResidencyTicks::UNDEFINED 2542121700500                       # Cumulative time (in ticks) in various power states
system.tsunami.fake_uart3.pwrStateResidencyTicks::UNDEFINED 2542121700500                       # Cumulative time (in ticks) in various power states
system.tsunami.fake_uart4.pwrStateResidencyTicks::UNDEFINED 2542121700500                       # Cumulative time (in ticks) in various power states
system.tsunami.fake_ppc.pwrStateResidencyTicks::UNDEFINED 2542121700500                       # Cumulative time (in ticks) in various power states
system.tsunami.cchip.pwrStateResidencyTicks::UNDEFINED 2542121700500                       # Cumulative time (in ticks) in various power states
system.tsunami.io.pwrStateResidencyTicks::UNDEFINED 2542121700500                       # Cumulative time (in ticks) in various power states
system.tsunami.pchip.pwrStateResidencyTicks::UNDEFINED 2542121700500                       # Cumulative time (in ticks) in various power states
system.tsunami.fake_ata1.pwrStateResidencyTicks::UNDEFINED 2542121700500                       # Cumulative time (in ticks) in various power states
system.tsunami.fake_ata0.pwrStateResidencyTicks::UNDEFINED 2542121700500                       # Cumulative time (in ticks) in various power states
system.tsunami.backdoor.pwrStateResidencyTicks::UNDEFINED 2542121700500                       # Cumulative time (in ticks) in various power states
system.tsunami.fake_pnp_read3.pwrStateResidencyTicks::UNDEFINED 2542121700500                       # Cumulative time (in ticks) in various power states
system.tsunami.fake_pnp_read2.pwrStateResidencyTicks::UNDEFINED 2542121700500                       # Cumulative time (in ticks) in various power states
system.tsunami.fake_pnp_read1.pwrStateResidencyTicks::UNDEFINED 2542121700500                       # Cumulative time (in ticks) in various power states
system.tsunami.fake_pnp_read0.pwrStateResidencyTicks::UNDEFINED 2542121700500                       # Cumulative time (in ticks) in various power states
system.tsunami.fake_pnp_read7.pwrStateResidencyTicks::UNDEFINED 2542121700500                       # Cumulative time (in ticks) in various power states
system.tsunami.fake_pnp_read6.pwrStateResidencyTicks::UNDEFINED 2542121700500                       # Cumulative time (in ticks) in various power states
system.tsunami.fake_pnp_read5.pwrStateResidencyTicks::UNDEFINED 2542121700500                       # Cumulative time (in ticks) in various power states
system.tsunami.fake_pnp_read4.pwrStateResidencyTicks::UNDEFINED 2542121700500                       # Cumulative time (in ticks) in various power states
system.tsunami.fake_pnp_write.pwrStateResidencyTicks::UNDEFINED 2542121700500                       # Cumulative time (in ticks) in various power states
system.tsunami.fb.pwrStateResidencyTicks::UNDEFINED 2542121700500                       # Cumulative time (in ticks) in various power states
system.tsunami.fake_pnp_addr.pwrStateResidencyTicks::UNDEFINED 2542121700500                       # Cumulative time (in ticks) in various power states
system.tsunami.fake_OROM.pwrStateResidencyTicks::UNDEFINED 2542121700500                       # Cumulative time (in ticks) in various power states
system.tsunami.uart.pwrStateResidencyTicks::UNDEFINED 2542121700500                       # Cumulative time (in ticks) in various power states
system.tsunami.fake_sm_chip.pwrStateResidencyTicks::UNDEFINED 2542121700500                       # Cumulative time (in ticks) in various power states
system.tsunami.ethernet.pwrStateResidencyTicks::UNDEFINED 2542121700500                       # Cumulative time (in ticks) in various power states
system.tsunami.ide.pwrStateResidencyTicks::UNDEFINED 2542121700500                       # Cumulative time (in ticks) in various power states
system.cpu_voltage_domain.voltage                   1                       # Voltage in Volts
system.mem_ctrls.pwrStateResidencyTicks::UNDEFINED 2542121700500                       # Cumulative time (in ticks) in various power states
system.mem_ctrls.bytes_read::.cpu.inst        5688704                       # Number of bytes read from this memory
system.mem_ctrls.bytes_read::.cpu.data        4496128                       # Number of bytes read from this memory
system.mem_ctrls.bytes_read::total           10184832                       # Number of bytes read from this memory
system.mem_ctrls.bytes_inst_read::.cpu.inst      5688704                       # Number of instructions bytes read from this memory
system.mem_ctrls.bytes_inst_read::total       5688704                       # Number of instructions bytes read from this memory
system.mem_ctrls.bytes_written::.writebacks      2234112                       # Number of bytes written to this memory
system.mem_ctrls.bytes_written::total         2234112                       # Number of bytes written to this memory
system.mem_ctrls.num_reads::.cpu.inst           88886                       # Number of read requests responded to by this memory
system.mem_ctrls.num_reads::.cpu.data           70252                       # Number of read requests responded to by this memory
system.mem_ctrls.num_reads::total              159138                       # Number of read requests responded to by this memory
system.mem_ctrls.num_writes::.writebacks        34908                       # Number of write requests responded to by this memory
system.mem_ctrls.num_writes::total              34908                       # Number of write requests responded to by this memory
system.mem_ctrls.bw_read::.cpu.inst         469680636                       # Total read bandwidth from this memory (bytes/s)
system.mem_ctrls.bw_read::.cpu.data         371217110                       # Total read bandwidth from this memory (bytes/s)
system.mem_ctrls.bw_read::total             840897747                       # Total read bandwidth from this memory (bytes/s)
system.mem_ctrls.bw_inst_read::.cpu.inst    469680636                       # Instruction read bandwidth from this memory (bytes/s)
system.mem_ctrls.bw_inst_read::total        469680636                       # Instruction read bandwidth from this memory (bytes/s)
system.mem_ctrls.bw_write::.writebacks      184456626                       # Write bandwidth from this memory (bytes/s)
system.mem_ctrls.bw_write::total            184456626                       # Write bandwidth from this memory (bytes/s)
system.mem_ctrls.bw_total::.writebacks      184456626                       # Total bandwidth to/from this memory (bytes/s)
system.mem_ctrls.bw_total::.cpu.inst        469680636                       # Total bandwidth to/from this memory (bytes/s)
system.mem_ctrls.bw_total::.cpu.data        371217110                       # Total bandwidth to/from this memory (bytes/s)
system.mem_ctrls.bw_total::total           1025354373                       # Total bandwidth to/from this memory (bytes/s)
system.mem_ctrls.avgPriority_.writebacks::samples    121039.00                       # Average QoS priority value for accepted requests
system.mem_ctrls.avgPriority_.cpu.inst::samples     78971.00                       # Average QoS priority value for accepted requests
system.mem_ctrls.avgPriority_.cpu.data::samples     69752.00                       # Average QoS priority value for accepted requests
system.mem_ctrls.priorityMinLatency      0.000000018750                       # per QoS priority minimum request to response latency (s)
system.mem_ctrls.priorityMaxLatency      0.000183951750                       # per QoS priority maximum request to response latency (s)
system.mem_ctrls.numReadWriteTurnArounds         7449                       # Number of turnarounds from READ to WRITE
system.mem_ctrls.numWriteReadTurnArounds         7449                       # Number of turnarounds from WRITE to READ
system.mem_ctrls.numStayReadState              412613                       # Number of times bus staying in READ state
system.mem_ctrls.numStayWriteState             113666                       # Number of times bus staying in WRITE state
system.mem_ctrls.readReqs                      159138                       # Number of read requests accepted
system.mem_ctrls.writeReqs                     123047                       # Number of write requests accepted
system.mem_ctrls.readBursts                    159138                       # Number of DRAM read bursts, including those serviced by the write queue
system.mem_ctrls.writeBursts                   123047                       # Number of DRAM write bursts, including those merged in the write queue
system.mem_ctrls.servicedByWrQ                  10415                       # Number of DRAM read bursts serviced by the write queue
system.mem_ctrls.mergedWrBursts                  2008                       # Number of DRAM write bursts merged with an existing one
system.mem_ctrls.neitherReadNorWriteReqs            0                       # Number of requests that are neither read nor write
system.mem_ctrls.perBankRdBursts::0              8914                       # Per bank write bursts
system.mem_ctrls.perBankRdBursts::1              6763                       # Per bank write bursts
system.mem_ctrls.perBankRdBursts::2             10171                       # Per bank write bursts
system.mem_ctrls.perBankRdBursts::3              7217                       # Per bank write bursts
system.mem_ctrls.perBankRdBursts::4              8581                       # Per bank write bursts
system.mem_ctrls.perBankRdBursts::5             10061                       # Per bank write bursts
system.mem_ctrls.perBankRdBursts::6              8792                       # Per bank write bursts
system.mem_ctrls.perBankRdBursts::7              8829                       # Per bank write bursts
system.mem_ctrls.perBankRdBursts::8             11926                       # Per bank write bursts
system.mem_ctrls.perBankRdBursts::9              9374                       # Per bank write bursts
system.mem_ctrls.perBankRdBursts::10            10756                       # Per bank write bursts
system.mem_ctrls.perBankRdBursts::11            12137                       # Per bank write bursts
system.mem_ctrls.perBankRdBursts::12             8942                       # Per bank write bursts
system.mem_ctrls.perBankRdBursts::13            13777                       # Per bank write bursts
system.mem_ctrls.perBankRdBursts::14             5586                       # Per bank write bursts
system.mem_ctrls.perBankRdBursts::15             6897                       # Per bank write bursts
system.mem_ctrls.perBankWrBursts::0              7274                       # Per bank write bursts
system.mem_ctrls.perBankWrBursts::1              4553                       # Per bank write bursts
system.mem_ctrls.perBankWrBursts::2              8869                       # Per bank write bursts
system.mem_ctrls.perBankWrBursts::3              8026                       # Per bank write bursts
system.mem_ctrls.perBankWrBursts::4              7850                       # Per bank write bursts
system.mem_ctrls.perBankWrBursts::5              9768                       # Per bank write bursts
system.mem_ctrls.perBankWrBursts::6              7566                       # Per bank write bursts
system.mem_ctrls.perBankWrBursts::7              7037                       # Per bank write bursts
system.mem_ctrls.perBankWrBursts::8             10774                       # Per bank write bursts
system.mem_ctrls.perBankWrBursts::9              8534                       # Per bank write bursts
system.mem_ctrls.perBankWrBursts::10             8101                       # Per bank write bursts
system.mem_ctrls.perBankWrBursts::11             8113                       # Per bank write bursts
system.mem_ctrls.perBankWrBursts::12             5507                       # Per bank write bursts
system.mem_ctrls.perBankWrBursts::13            10106                       # Per bank write bursts
system.mem_ctrls.perBankWrBursts::14             3190                       # Per bank write bursts
system.mem_ctrls.perBankWrBursts::15             5750                       # Per bank write bursts
system.mem_ctrls.avgRdQLen                       1.09                       # Average read queue length when enqueuing
system.mem_ctrls.avgWrQLen                      25.70                       # Average write queue length when enqueuing
system.mem_ctrls.totQLat                   2045444000                       # Total ticks spent queuing
system.mem_ctrls.totBusLat                  743615000                       # Total ticks spent in databus transfers
system.mem_ctrls.totMemAccLat              4834000250                       # Total ticks spent from burst creation until serviced by the DRAM
system.mem_ctrls.avgQLat                     13753.38                       # Average queueing delay per DRAM burst
system.mem_ctrls.avgBusLat                    5000.00                       # Average bus latency per DRAM burst
system.mem_ctrls.avgMemAccLat                32503.38                       # Average memory access latency per DRAM burst
system.mem_ctrls.numRdRetry                         0                       # Number of times read queue was full causing retry
system.mem_ctrls.numWrRetry                         0                       # Number of times write queue was full causing retry
system.mem_ctrls.readRowHits                   105242                       # Number of row buffer hits during reads
system.mem_ctrls.writeRowHits                   81797                       # Number of row buffer hits during writes
system.mem_ctrls.readRowHitRate                 70.76                       # Row buffer hit rate for reads
system.mem_ctrls.writeRowHitRate                67.58                       # Row buffer hit rate for writes
system.mem_ctrls.readPktSize::0                     0                       # Read request sizes (log2)
system.mem_ctrls.readPktSize::1                     0                       # Read request sizes (log2)
system.mem_ctrls.readPktSize::2                     0                       # Read request sizes (log2)
system.mem_ctrls.readPktSize::3                     0                       # Read request sizes (log2)
system.mem_ctrls.readPktSize::4                     0                       # Read request sizes (log2)
system.mem_ctrls.readPktSize::5                     0                       # Read request sizes (log2)
system.mem_ctrls.readPktSize::6                159138                       # Read request sizes (log2)
system.mem_ctrls.writePktSize::0                    0                       # Write request sizes (log2)
system.mem_ctrls.writePktSize::1                    0                       # Write request sizes (log2)
system.mem_ctrls.writePktSize::2                    0                       # Write request sizes (log2)
system.mem_ctrls.writePktSize::3                    0                       # Write request sizes (log2)
system.mem_ctrls.writePktSize::4                    0                       # Write request sizes (log2)
system.mem_ctrls.writePktSize::5                    0                       # Write request sizes (log2)
system.mem_ctrls.writePktSize::6               123047                       # Write request sizes (log2)
system.mem_ctrls.rdQLenPdf::0                  136312                       # What read queue length does an incoming req see
system.mem_ctrls.rdQLenPdf::1                   12092                       # What read queue length does an incoming req see
system.mem_ctrls.rdQLenPdf::2                     319                       # What read queue length does an incoming req see
system.mem_ctrls.rdQLenPdf::3                       0                       # What read queue length does an incoming req see
system.mem_ctrls.rdQLenPdf::4                       0                       # What read queue length does an incoming req see
system.mem_ctrls.rdQLenPdf::5                       0                       # What read queue length does an incoming req see
system.mem_ctrls.rdQLenPdf::6                       0                       # What read queue length does an incoming req see
system.mem_ctrls.rdQLenPdf::7                       0                       # What read queue length does an incoming req see
system.mem_ctrls.rdQLenPdf::8                       0                       # What read queue length does an incoming req see
system.mem_ctrls.rdQLenPdf::9                       0                       # What read queue length does an incoming req see
system.mem_ctrls.rdQLenPdf::10                      0                       # What read queue length does an incoming req see
system.mem_ctrls.rdQLenPdf::11                      0                       # What read queue length does an incoming req see
system.mem_ctrls.rdQLenPdf::12                      0                       # What read queue length does an incoming req see
system.mem_ctrls.rdQLenPdf::13                      0                       # What read queue length does an incoming req see
system.mem_ctrls.rdQLenPdf::14                      0                       # What read queue length does an incoming req see
system.mem_ctrls.rdQLenPdf::15                      0                       # What read queue length does an incoming req see
system.mem_ctrls.rdQLenPdf::16                      0                       # What read queue length does an incoming req see
system.mem_ctrls.rdQLenPdf::17                      0                       # What read queue length does an incoming req see
system.mem_ctrls.rdQLenPdf::18                      0                       # What read queue length does an incoming req see
system.mem_ctrls.rdQLenPdf::19                      0                       # What read queue length does an incoming req see
system.mem_ctrls.rdQLenPdf::20                      0                       # What read queue length does an incoming req see
system.mem_ctrls.rdQLenPdf::21                      0                       # What read queue length does an incoming req see
system.mem_ctrls.rdQLenPdf::22                      0                       # What read queue length does an incoming req see
system.mem_ctrls.rdQLenPdf::23                      0                       # What read queue length does an incoming req see
system.mem_ctrls.rdQLenPdf::24                      0                       # What read queue length does an incoming req see
system.mem_ctrls.rdQLenPdf::25                      0                       # What read queue length does an incoming req see
system.mem_ctrls.rdQLenPdf::26                      0                       # What read queue length does an incoming req see
system.mem_ctrls.rdQLenPdf::27                      0                       # What read queue length does an incoming req see
system.mem_ctrls.rdQLenPdf::28                      0                       # What read queue length does an incoming req see
system.mem_ctrls.rdQLenPdf::29                      0                       # What read queue length does an incoming req see
system.mem_ctrls.rdQLenPdf::30                      0                       # What read queue length does an incoming req see
system.mem_ctrls.rdQLenPdf::31                      0                       # What read queue length does an incoming req see
system.mem_ctrls.wrQLenPdf::0                       1                       # What write queue length does an incoming req see
system.mem_ctrls.wrQLenPdf::1                       1                       # What write queue length does an incoming req see
system.mem_ctrls.wrQLenPdf::2                       1                       # What write queue length does an incoming req see
system.mem_ctrls.wrQLenPdf::3                       1                       # What write queue length does an incoming req see
system.mem_ctrls.wrQLenPdf::4                       1                       # What write queue length does an incoming req see
system.mem_ctrls.wrQLenPdf::5                       1                       # What write queue length does an incoming req see
system.mem_ctrls.wrQLenPdf::6                       1                       # What write queue length does an incoming req see
system.mem_ctrls.wrQLenPdf::7                       1                       # What write queue length does an incoming req see
system.mem_ctrls.wrQLenPdf::8                       1                       # What write queue length does an incoming req see
system.mem_ctrls.wrQLenPdf::9                       1                       # What write queue length does an incoming req see
system.mem_ctrls.wrQLenPdf::10                      1                       # What write queue length does an incoming req see
system.mem_ctrls.wrQLenPdf::11                      1                       # What write queue length does an incoming req see
system.mem_ctrls.wrQLenPdf::12                      1                       # What write queue length does an incoming req see
system.mem_ctrls.wrQLenPdf::13                      1                       # What write queue length does an incoming req see
system.mem_ctrls.wrQLenPdf::14                      1                       # What write queue length does an incoming req see
system.mem_ctrls.wrQLenPdf::15                    650                       # What write queue length does an incoming req see
system.mem_ctrls.wrQLenPdf::16                    783                       # What write queue length does an incoming req see
system.mem_ctrls.wrQLenPdf::17                   6856                       # What write queue length does an incoming req see
system.mem_ctrls.wrQLenPdf::18                   7468                       # What write queue length does an incoming req see
system.mem_ctrls.wrQLenPdf::19                   7569                       # What write queue length does an incoming req see
system.mem_ctrls.wrQLenPdf::20                   7549                       # What write queue length does an incoming req see
system.mem_ctrls.wrQLenPdf::21                   7543                       # What write queue length does an incoming req see
system.mem_ctrls.wrQLenPdf::22                   7630                       # What write queue length does an incoming req see
system.mem_ctrls.wrQLenPdf::23                   7535                       # What write queue length does an incoming req see
system.mem_ctrls.wrQLenPdf::24                   7533                       # What write queue length does an incoming req see
system.mem_ctrls.wrQLenPdf::25                   7513                       # What write queue length does an incoming req see
system.mem_ctrls.wrQLenPdf::26                   7529                       # What write queue length does an incoming req see
system.mem_ctrls.wrQLenPdf::27                   7486                       # What write queue length does an incoming req see
system.mem_ctrls.wrQLenPdf::28                   7501                       # What write queue length does an incoming req see
system.mem_ctrls.wrQLenPdf::29                   7480                       # What write queue length does an incoming req see
system.mem_ctrls.wrQLenPdf::30                   7459                       # What write queue length does an incoming req see
system.mem_ctrls.wrQLenPdf::31                   7462                       # What write queue length does an incoming req see
system.mem_ctrls.wrQLenPdf::32                   7456                       # What write queue length does an incoming req see
system.mem_ctrls.wrQLenPdf::33                     16                       # What write queue length does an incoming req see
system.mem_ctrls.wrQLenPdf::34                      4                       # What write queue length does an incoming req see
system.mem_ctrls.wrQLenPdf::35                      2                       # What write queue length does an incoming req see
system.mem_ctrls.wrQLenPdf::36                      0                       # What write queue length does an incoming req see
system.mem_ctrls.wrQLenPdf::37                      0                       # What write queue length does an incoming req see
system.mem_ctrls.wrQLenPdf::38                      0                       # What write queue length does an incoming req see
system.mem_ctrls.wrQLenPdf::39                      0                       # What write queue length does an incoming req see
system.mem_ctrls.wrQLenPdf::40                      0                       # What write queue length does an incoming req see
system.mem_ctrls.wrQLenPdf::41                      0                       # What write queue length does an incoming req see
system.mem_ctrls.wrQLenPdf::42                      0                       # What write queue length does an incoming req see
system.mem_ctrls.wrQLenPdf::43                      0                       # What write queue length does an incoming req see
system.mem_ctrls.wrQLenPdf::44                      0                       # What write queue length does an incoming req see
system.mem_ctrls.wrQLenPdf::45                      0                       # What write queue length does an incoming req see
system.mem_ctrls.wrQLenPdf::46                      0                       # What write queue length does an incoming req see
system.mem_ctrls.wrQLenPdf::47                      0                       # What write queue length does an incoming req see
system.mem_ctrls.wrQLenPdf::48                      0                       # What write queue length does an incoming req see
system.mem_ctrls.wrQLenPdf::49                      0                       # What write queue length does an incoming req see
system.mem_ctrls.wrQLenPdf::50                      0                       # What write queue length does an incoming req see
system.mem_ctrls.wrQLenPdf::51                      0                       # What write queue length does an incoming req see
system.mem_ctrls.wrQLenPdf::52                      0                       # What write queue length does an incoming req see
system.mem_ctrls.wrQLenPdf::53                      0                       # What write queue length does an incoming req see
system.mem_ctrls.wrQLenPdf::54                      0                       # What write queue length does an incoming req see
system.mem_ctrls.wrQLenPdf::55                      0                       # What write queue length does an incoming req see
system.mem_ctrls.wrQLenPdf::56                      0                       # What write queue length does an incoming req see
system.mem_ctrls.wrQLenPdf::57                      0                       # What write queue length does an incoming req see
system.mem_ctrls.wrQLenPdf::58                      0                       # What write queue length does an incoming req see
system.mem_ctrls.wrQLenPdf::59                      0                       # What write queue length does an incoming req see
system.mem_ctrls.wrQLenPdf::60                      0                       # What write queue length does an incoming req see
system.mem_ctrls.wrQLenPdf::61                      0                       # What write queue length does an incoming req see
system.mem_ctrls.wrQLenPdf::62                      0                       # What write queue length does an incoming req see
system.mem_ctrls.wrQLenPdf::63                      0                       # What write queue length does an incoming req see
system.mem_ctrls.bytesPerActivate::samples        82692                       # Bytes accessed per row activation
system.mem_ctrls.bytesPerActivate::mean    208.744546                       # Bytes accessed per row activation
system.mem_ctrls.bytesPerActivate::gmean   140.525623                       # Bytes accessed per row activation
system.mem_ctrls.bytesPerActivate::stdev   224.524997                       # Bytes accessed per row activation
system.mem_ctrls.bytesPerActivate::0-127        34958     42.27%     42.27% # Bytes accessed per row activation
system.mem_ctrls.bytesPerActivate::128-255        24553     29.69%     71.97% # Bytes accessed per row activation
system.mem_ctrls.bytesPerActivate::256-383        10185     12.32%     84.28% # Bytes accessed per row activation
system.mem_ctrls.bytesPerActivate::384-511         4728      5.72%     90.00% # Bytes accessed per row activation
system.mem_ctrls.bytesPerActivate::512-639         2471      2.99%     92.99% # Bytes accessed per row activation
system.mem_ctrls.bytesPerActivate::640-767         1471      1.78%     94.77% # Bytes accessed per row activation
system.mem_ctrls.bytesPerActivate::768-895          931      1.13%     95.89% # Bytes accessed per row activation
system.mem_ctrls.bytesPerActivate::896-1023          579      0.70%     96.59% # Bytes accessed per row activation
system.mem_ctrls.bytesPerActivate::1024-1151         2816      3.41%    100.00% # Bytes accessed per row activation
system.mem_ctrls.bytesPerActivate::total        82692                       # Bytes accessed per row activation
system.mem_ctrls.rdPerTurnAround::samples         7449                       # Reads before turning the bus around for writes
system.mem_ctrls.rdPerTurnAround::mean      19.964962                       # Reads before turning the bus around for writes
system.mem_ctrls.rdPerTurnAround::gmean     18.369848                       # Reads before turning the bus around for writes
system.mem_ctrls.rdPerTurnAround::stdev     12.658978                       # Reads before turning the bus around for writes
system.mem_ctrls.rdPerTurnAround::0-15           1346     18.07%     18.07% # Reads before turning the bus around for writes
system.mem_ctrls.rdPerTurnAround::16-31          5618     75.42%     93.49% # Reads before turning the bus around for writes
system.mem_ctrls.rdPerTurnAround::32-47           302      4.05%     97.54% # Reads before turning the bus around for writes
system.mem_ctrls.rdPerTurnAround::48-63            78      1.05%     98.59% # Reads before turning the bus around for writes
system.mem_ctrls.rdPerTurnAround::64-79            43      0.58%     99.17% # Reads before turning the bus around for writes
system.mem_ctrls.rdPerTurnAround::80-95            22      0.30%     99.46% # Reads before turning the bus around for writes
system.mem_ctrls.rdPerTurnAround::96-111           18      0.24%     99.70% # Reads before turning the bus around for writes
system.mem_ctrls.rdPerTurnAround::112-127            6      0.08%     99.79% # Reads before turning the bus around for writes
system.mem_ctrls.rdPerTurnAround::128-143            6      0.08%     99.87% # Reads before turning the bus around for writes
system.mem_ctrls.rdPerTurnAround::144-159            4      0.05%     99.92% # Reads before turning the bus around for writes
system.mem_ctrls.rdPerTurnAround::160-175            2      0.03%     99.95% # Reads before turning the bus around for writes
system.mem_ctrls.rdPerTurnAround::176-191            1      0.01%     99.96% # Reads before turning the bus around for writes
system.mem_ctrls.rdPerTurnAround::192-207            1      0.01%     99.97% # Reads before turning the bus around for writes
system.mem_ctrls.rdPerTurnAround::256-271            1      0.01%     99.99% # Reads before turning the bus around for writes
system.mem_ctrls.rdPerTurnAround::416-431            1      0.01%    100.00% # Reads before turning the bus around for writes
system.mem_ctrls.rdPerTurnAround::total          7449                       # Reads before turning the bus around for writes
system.mem_ctrls.wrPerTurnAround::samples         7449                       # Writes before turning the bus around for reads
system.mem_ctrls.wrPerTurnAround::mean      16.246208                       # Writes before turning the bus around for reads
system.mem_ctrls.wrPerTurnAround::gmean     16.230039                       # Writes before turning the bus around for reads
system.mem_ctrls.wrPerTurnAround::stdev      0.758983                       # Writes before turning the bus around for reads
system.mem_ctrls.wrPerTurnAround::16             6646     89.22%     89.22% # Writes before turning the bus around for reads
system.mem_ctrls.wrPerTurnAround::17              105      1.41%     90.63% # Writes before turning the bus around for reads
system.mem_ctrls.wrPerTurnAround::18              448      6.01%     96.64% # Writes before turning the bus around for reads
system.mem_ctrls.wrPerTurnAround::19              174      2.34%     98.98% # Writes before turning the bus around for reads
system.mem_ctrls.wrPerTurnAround::20               69      0.93%     99.91% # Writes before turning the bus around for reads
system.mem_ctrls.wrPerTurnAround::21                7      0.09%    100.00% # Writes before turning the bus around for reads
system.mem_ctrls.wrPerTurnAround::total          7449                       # Writes before turning the bus around for reads
system.mem_ctrls.bytesReadDRAM                9518272                       # Total number of bytes read from DRAM
system.mem_ctrls.bytesReadWrQ                  666560                       # Total number of bytes read from write queue
system.mem_ctrls.bytesWritten                 7745152                       # Total number of bytes written to DRAM
system.mem_ctrls.bytesReadSys                10184832                       # Total read bytes from the system interface side
system.mem_ctrls.bytesWrittenSys              7875008                       # Total written bytes from the system interface side
system.mem_ctrls.avgRdBW                       785.86                       # Average DRAM read bandwidth in MiByte/s
system.mem_ctrls.avgWrBW                       639.47                       # Average achieved write bandwidth in MiByte/s
system.mem_ctrls.avgRdBWSys                    840.90                       # Average system read bandwidth in MiByte/s
system.mem_ctrls.avgWrBWSys                    650.19                       # Average system write bandwidth in MiByte/s
system.mem_ctrls.peakBW                      12800.00                       # Theoretical peak bandwidth in MiByte/s
system.mem_ctrls.busUtil                        11.14                       # Data bus utilization in percentage
system.mem_ctrls.busUtilRead                     6.14                       # Data bus utilization in percentage for reads
system.mem_ctrls.busUtilWrite                    5.00                       # Data bus utilization in percentage for writes
system.mem_ctrls.totGap                   12111850500                       # Total gap between requests
system.mem_ctrls.avgGap                      42921.67                       # Average gap between requests
system.mem_ctrls.masterReadBytes::.cpu.inst      5054144                       # Per-master bytes read from memory
system.mem_ctrls.masterReadBytes::.cpu.data      4464128                       # Per-master bytes read from memory
system.mem_ctrls.masterWriteBytes::.writebacks      7745152                       # Per-master bytes write to memory
system.mem_ctrls.masterReadRate::.cpu.inst 417288994.242046594620                       # Per-master bytes read from memory rate (Bytes/sec)
[...]
system.cpu.icache.tags.occ_percent::total            1                       # Average percentage of cache occupancy
system.cpu.icache.tags.occ_task_id_blocks::1024          512                       # Occupied blocks per task id
system.cpu.icache.tags.age_task_id_blocks_1024::1          106                       # Occupied blocks per task id
system.cpu.icache.tags.age_task_id_blocks_1024::2           73                       # Occupied blocks per task id
system.cpu.icache.tags.age_task_id_blocks_1024::3          315                       # Occupied blocks per task id
system.cpu.icache.tags.age_task_id_blocks_1024::4           18                       # Occupied blocks per task id
system.cpu.icache.tags.occ_task_id_percent::1024            1                       # Percentage of cache occupancy per task id
system.cpu.icache.tags.tag_accesses         358995333                       # Number of tag accesses
system.cpu.icache.tags.data_accesses        358995333                       # Number of data accesses
system.cpu.dcache.pwrStateResidencyTicks::UNDEFINED 388658718500                       # Cumulative time (in ticks) in various power states
system.cpu.dcache.demand_hits::.cpu.data    177095465                       # number of demand (read+write) hits
system.cpu.dcache.demand_hits::total        177095465                       # number of demand (read+write) hits
system.cpu.dcache.overall_hits::.cpu.data    177095465                       # number of overall hits
system.cpu.dcache.overall_hits::total       177095465                       # number of overall hits
system.cpu.dcache.demand_misses::.cpu.data       561015                       # number of demand (read+write) misses
system.cpu.dcache.demand_misses::total         561015                       # number of demand (read+write) misses
system.cpu.dcache.overall_misses::.cpu.data       561015                       # number of overall misses
system.cpu.dcache.overall_misses::total        561015                       # number of overall misses
system.cpu.dcache.demand_miss_latency::.cpu.data  36233890000                       # number of demand (read+write) miss cycles
system.cpu.dcache.demand_miss_latency::total  36233890000                       # number of demand (read+write) miss cycles
system.cpu.dcache.overall_miss_latency::.cpu.data  36233890000                       # number of overall miss cycles
system.cpu.dcache.overall_miss_latency::total  36233890000                       # number of overall miss cycles
system.cpu.dcache.demand_accesses::.cpu.data    177656480                       # number of demand (read+write) accesses
system.cpu.dcache.demand_accesses::total    177656480                       # number of demand (read+write) accesses
system.cpu.dcache.overall_accesses::.cpu.data    177656480                       # number of overall (read+write) accesses
system.cpu.dcache.overall_accesses::total    177656480                       # number of overall (read+write) accesses
system.cpu.dcache.demand_miss_rate::.cpu.data     0.003158                       # miss rate for demand accesses
system.cpu.dcache.demand_miss_rate::total     0.003158                       # miss rate for demand accesses
system.cpu.dcache.overall_miss_rate::.cpu.data     0.003158                       # miss rate for overall accesses
system.cpu.dcache.overall_miss_rate::total     0.003158                       # miss rate for overall accesses
system.cpu.dcache.demand_avg_miss_latency::.cpu.data 64586.312309                       # average overall miss latency
system.cpu.dcache.demand_avg_miss_latency::total 64586.312309                       # average overall miss latency
system.cpu.dcache.overall_avg_miss_latency::.cpu.data 64586.312309                       # average overall miss latency
system.cpu.dcache.overall_avg_miss_latency::total 64586.312309                       # average overall miss latency
system.cpu.dcache.blocked_cycles::no_mshrs            0                       # number of cycles access was blocked
system.cpu.dcache.blocked_cycles::no_targets            0                       # number of cycles access was blocked
system.cpu.dcache.blocked::no_mshrs                 0                       # number of cycles access was blocked
system.cpu.dcache.blocked::no_targets               0                       # number of cycles access was blocked
system.cpu.dcache.avg_blocked_cycles::no_mshrs          nan                       # average number of cycles each access was blocked
system.cpu.dcache.avg_blocked_cycles::no_targets          nan                       # average number of cycles each access was blocked
system.cpu.dcache.writebacks::.writebacks       304157                       # number of writebacks
system.cpu.dcache.writebacks::total            304157                       # number of writebacks
system.cpu.dcache.demand_mshr_hits::.cpu.data       111059                       # number of demand (read+write) MSHR hits
system.cpu.dcache.demand_mshr_hits::total       111059                       # number of demand (read+write) MSHR hits
system.cpu.dcache.overall_mshr_hits::.cpu.data       111059                       # number of overall MSHR hits
system.cpu.dcache.overall_mshr_hits::total       111059                       # number of overall MSHR hits
system.cpu.dcache.demand_mshr_misses::.cpu.data       449956                       # number of demand (read+write) MSHR misses
system.cpu.dcache.demand_mshr_misses::total       449956                       # number of demand (read+write) MSHR misses
system.cpu.dcache.overall_mshr_misses::.cpu.data       449956                       # number of overall MSHR misses
system.cpu.dcache.overall_mshr_misses::total       449956                       # number of overall MSHR misses
system.cpu.dcache.overall_mshr_uncacheable_misses::.cpu.data         1822                       # number of overall MSHR uncacheable misses
system.cpu.dcache.overall_mshr_uncacheable_misses::total         1822                       # number of overall MSHR uncacheable misses
system.cpu.dcache.demand_mshr_miss_latency::.cpu.data  28967621500                       # number of demand (read+write) MSHR miss cycles
system.cpu.dcache.demand_mshr_miss_latency::total  28967621500                       # number of demand (read+write) MSHR miss cycles
system.cpu.dcache.overall_mshr_miss_latency::.cpu.data  28967621500                       # number of overall MSHR miss cycles
system.cpu.dcache.overall_mshr_miss_latency::total  28967621500                       # number of overall MSHR miss cycles
system.cpu.dcache.overall_mshr_uncacheable_latency::.cpu.data     82695500                       # number of overall MSHR uncacheable cycles
system.cpu.dcache.overall_mshr_uncacheable_latency::total     82695500                       # number of overall MSHR uncacheable cycles
system.cpu.dcache.demand_mshr_miss_rate::.cpu.data     0.002533                       # mshr miss rate for demand accesses
system.cpu.dcache.demand_mshr_miss_rate::total     0.002533                       # mshr miss rate for demand accesses
system.cpu.dcache.overall_mshr_miss_rate::.cpu.data     0.002533                       # mshr miss rate for overall accesses
system.cpu.dcache.overall_mshr_miss_rate::total     0.002533                       # mshr miss rate for overall accesses
system.cpu.dcache.demand_avg_mshr_miss_latency::.cpu.data 64378.787037                       # average overall mshr miss latency
system.cpu.dcache.demand_avg_mshr_miss_latency::total 64378.787037                       # average overall mshr miss latency
system.cpu.dcache.overall_avg_mshr_miss_latency::.cpu.data 64378.787037                       # average overall mshr miss latency
system.cpu.dcache.overall_avg_mshr_miss_latency::total 64378.787037                       # average overall mshr miss latency
system.cpu.dcache.overall_avg_mshr_uncacheable_latency::.cpu.data 45387.211855                       # average overall mshr uncacheable latency
system.cpu.dcache.overall_avg_mshr_uncacheable_latency::total 45387.211855                       # average overall mshr uncacheable latency
system.cpu.dcache.replacements                 453163                       # number of replacements
system.cpu.dcache.ReadReq_hits::.cpu.data    123474788                       # number of ReadReq hits
system.cpu.dcache.ReadReq_hits::total       123474788                       # number of ReadReq hits
system.cpu.dcache.ReadReq_misses::.cpu.data       318578                       # number of ReadReq misses
system.cpu.dcache.ReadReq_misses::total        318578                       # number of ReadReq misses
system.cpu.dcache.ReadReq_miss_latency::.cpu.data  21611328000                       # number of ReadReq miss cycles
system.cpu.dcache.ReadReq_miss_latency::total  21611328000                       # number of ReadReq miss cycles
system.cpu.dcache.ReadReq_accesses::.cpu.data    123793366                       # number of ReadReq accesses(hits+misses)
system.cpu.dcache.ReadReq_accesses::total    123793366                       # number of ReadReq accesses(hits+misses)
system.cpu.dcache.ReadReq_miss_rate::.cpu.data     0.002573                       # miss rate for ReadReq accesses
system.cpu.dcache.ReadReq_miss_rate::total     0.002573                       # miss rate for ReadReq accesses
system.cpu.dcache.ReadReq_avg_miss_latency::.cpu.data 67836.850002                       # average ReadReq miss latency
system.cpu.dcache.ReadReq_avg_miss_latency::total 67836.850002                       # average ReadReq miss latency
system.cpu.dcache.ReadReq_mshr_hits::.cpu.data          534                       # number of ReadReq MSHR hits
system.cpu.dcache.ReadReq_mshr_hits::total          534                       # number of ReadReq MSHR hits
system.cpu.dcache.ReadReq_mshr_misses::.cpu.data       318044                       # number of ReadReq MSHR misses
system.cpu.dcache.ReadReq_mshr_misses::total       318044                       # number of ReadReq MSHR misses
system.cpu.dcache.ReadReq_mshr_uncacheable::.cpu.data          530                       # number of ReadReq MSHR uncacheable
system.cpu.dcache.ReadReq_mshr_uncacheable::total          530                       # number of ReadReq MSHR uncacheable
system.cpu.dcache.ReadReq_mshr_miss_latency::.cpu.data  21256977500                       # number of ReadReq MSHR miss cycles
system.cpu.dcache.ReadReq_mshr_miss_latency::total  21256977500                       # number of ReadReq MSHR miss cycles
system.cpu.dcache.ReadReq_mshr_uncacheable_latency::.cpu.data     82695500                       # number of ReadReq MSHR uncacheable cycles
system.cpu.dcache.ReadReq_mshr_uncacheable_latency::total     82695500                       # number of ReadReq MSHR uncacheable cycles
system.cpu.dcache.ReadReq_mshr_miss_rate::.cpu.data     0.002569                       # mshr miss rate for ReadReq accesses
system.cpu.dcache.ReadReq_mshr_miss_rate::total     0.002569                       # mshr miss rate for ReadReq accesses
system.cpu.dcache.ReadReq_avg_mshr_miss_latency::.cpu.data 66836.593364                       # average ReadReq mshr miss latency
system.cpu.dcache.ReadReq_avg_mshr_miss_latency::total 66836.593364                       # average ReadReq mshr miss latency
system.cpu.dcache.ReadReq_avg_mshr_uncacheable_latency::.cpu.data 156029.245283                       # average ReadReq mshr uncacheable latency
system.cpu.dcache.ReadReq_avg_mshr_uncacheable_latency::total 156029.245283                       # average ReadReq mshr uncacheable latency
system.cpu.dcache.WriteReq_hits::.cpu.data     53620677                       # number of WriteReq hits
system.cpu.dcache.WriteReq_hits::total       53620677                       # number of WriteReq hits
system.cpu.dcache.WriteReq_misses::.cpu.data       242437                       # number of WriteReq misses
system.cpu.dcache.WriteReq_misses::total       242437                       # number of WriteReq misses
system.cpu.dcache.WriteReq_miss_latency::.cpu.data  14622562000                       # number of WriteReq miss cycles
system.cpu.dcache.WriteReq_miss_latency::total  14622562000                       # number of WriteReq miss cycles
system.cpu.dcache.WriteReq_accesses::.cpu.data     53863114                       # number of WriteReq accesses(hits+misses)
system.cpu.dcache.WriteReq_accesses::total     53863114                       # number of WriteReq accesses(hits+misses)
system.cpu.dcache.WriteReq_miss_rate::.cpu.data     0.004501                       # miss rate for WriteReq accesses
system.cpu.dcache.WriteReq_miss_rate::total     0.004501                       # miss rate for WriteReq accesses
system.cpu.dcache.WriteReq_avg_miss_latency::.cpu.data 60314.894179                       # average WriteReq miss latency
system.cpu.dcache.WriteReq_avg_miss_latency::total 60314.894179                       # average WriteReq miss latency
system.cpu.dcache.WriteReq_mshr_hits::.cpu.data       110525                       # number of WriteReq MSHR hits
system.cpu.dcache.WriteReq_mshr_hits::total       110525                       # number of WriteReq MSHR hits
system.cpu.dcache.WriteReq_mshr_misses::.cpu.data       131912                       # number of WriteReq MSHR misses
system.cpu.dcache.WriteReq_mshr_misses::total       131912                       # number of WriteReq MSHR misses
system.cpu.dcache.WriteReq_mshr_uncacheable::.cpu.data         1292                       # number of WriteReq MSHR uncacheable
system.cpu.dcache.WriteReq_mshr_uncacheable::total         1292                       # number of WriteReq MSHR uncacheable
system.cpu.dcache.WriteReq_mshr_miss_latency::.cpu.data   7710644000                       # number of WriteReq MSHR miss cycles
system.cpu.dcache.WriteReq_mshr_miss_latency::total   7710644000                       # number of WriteReq MSHR miss cycles
system.cpu.dcache.WriteReq_mshr_miss_rate::.cpu.data     0.002449                       # mshr miss rate for WriteReq accesses
system.cpu.dcache.WriteReq_mshr_miss_rate::total     0.002449                       # mshr miss rate for WriteReq accesses
system.cpu.dcache.WriteReq_avg_mshr_miss_latency::.cpu.data 58452.938323                       # average WriteReq mshr miss latency
system.cpu.dcache.WriteReq_avg_mshr_miss_latency::total 58452.938323                       # average WriteReq mshr miss latency
system.cpu.dcache.LoadLockedReq_hits::.cpu.data     12209375                       # number of LoadLockedReq hits
system.cpu.dcache.LoadLockedReq_hits::total     12209375                       # number of LoadLockedReq hits
system.cpu.dcache.LoadLockedReq_misses::.cpu.data         3225                       # number of LoadLockedReq misses
system.cpu.dcache.LoadLockedReq_misses::total         3225                       # number of LoadLockedReq misses
system.cpu.dcache.LoadLockedReq_miss_latency::.cpu.data    250475000                       # number of LoadLockedReq miss cycles
system.cpu.dcache.LoadLockedReq_miss_latency::total    250475000                       # number of LoadLockedReq miss cycles
system.cpu.dcache.LoadLockedReq_accesses::.cpu.data     12212600                       # number of LoadLockedReq accesses(hits+misses)
system.cpu.dcache.LoadLockedReq_accesses::total     12212600                       # number of LoadLockedReq accesses(hits+misses)
system.cpu.dcache.LoadLockedReq_miss_rate::.cpu.data     0.000264                       # miss rate for LoadLockedReq accesses
system.cpu.dcache.LoadLockedReq_miss_rate::total     0.000264                       # miss rate for LoadLockedReq accesses
system.cpu.dcache.LoadLockedReq_avg_miss_latency::.cpu.data 77666.666667                       # average LoadLockedReq miss latency
system.cpu.dcache.LoadLockedReq_avg_miss_latency::total 77666.666667                       # average LoadLockedReq miss latency
system.cpu.dcache.LoadLockedReq_mshr_hits::.cpu.data            6                       # number of LoadLockedReq MSHR hits
system.cpu.dcache.LoadLockedReq_mshr_hits::total            6                       # number of LoadLockedReq MSHR hits
system.cpu.dcache.LoadLockedReq_mshr_misses::.cpu.data         3219                       # number of LoadLockedReq MSHR misses
system.cpu.dcache.LoadLockedReq_mshr_misses::total         3219                       # number of LoadLockedReq MSHR misses
system.cpu.dcache.LoadLockedReq_mshr_miss_latency::.cpu.data    246956500                       # number of LoadLockedReq MSHR miss cycles
system.cpu.dcache.LoadLockedReq_mshr_miss_latency::total    246956500                       # number of LoadLockedReq MSHR miss cycles
system.cpu.dcache.LoadLockedReq_mshr_miss_rate::.cpu.data     0.000264                       # mshr miss rate for LoadLockedReq accesses
system.cpu.dcache.LoadLockedReq_mshr_miss_rate::total     0.000264                       # mshr miss rate for LoadLockedReq accesses
system.cpu.dcache.LoadLockedReq_avg_mshr_miss_latency::.cpu.data 76718.390805                       # average LoadLockedReq mshr miss latency
system.cpu.dcache.LoadLockedReq_avg_mshr_miss_latency::total 76718.390805                       # average LoadLockedReq mshr miss latency
system.cpu.dcache.StoreCondReq_hits::.cpu.data     12212578                       # number of StoreCondReq hits
system.cpu.dcache.StoreCondReq_hits::total     12212578                       # number of StoreCondReq hits
system.cpu.dcache.StoreCondReq_accesses::.cpu.data     12212578                       # number of StoreCondReq accesses(hits+misses)
system.cpu.dcache.StoreCondReq_accesses::total     12212578                       # number of StoreCondReq accesses(hits+misses)
system.cpu.dcache.tags.pwrStateResidencyTicks::UNDEFINED 388658718500                       # Cumulative time (in ticks) in various power states
system.cpu.dcache.tags.tagsinuse                 1024                       # Cycle average of tags in use
system.cpu.dcache.tags.total_refs           202044734                       # Total number of references to valid blocks.
system.cpu.dcache.tags.sampled_refs            454187                       # Sample count of references to valid blocks.
system.cpu.dcache.tags.avg_refs            444.849223                       # Average number of references to valid blocks.
system.cpu.dcache.tags.warmup_cycle                 0                       # Cycle when the warmup percentage was hit.
system.cpu.dcache.tags.occ_blocks::.cpu.data         1024                       # Average occupied blocks per requestor
system.cpu.dcache.tags.occ_percent::.cpu.data            1                       # Average percentage of cache occupancy
system.cpu.dcache.tags.occ_percent::total            1                       # Average percentage of cache occupancy
system.cpu.dcache.tags.occ_task_id_blocks::1024         1024                       # Occupied blocks per task id
system.cpu.dcache.tags.age_task_id_blocks_1024::0            5                       # Occupied blocks per task id
system.cpu.dcache.tags.age_task_id_blocks_1024::1          109                       # Occupied blocks per task id
system.cpu.dcache.tags.age_task_id_blocks_1024::2          535                       # Occupied blocks per task id
system.cpu.dcache.tags.age_task_id_blocks_1024::3          353                       # Occupied blocks per task id
system.cpu.dcache.tags.age_task_id_blocks_1024::4           22                       # Occupied blocks per task id
system.cpu.dcache.tags.occ_task_id_percent::1024            1                       # Percentage of cache occupancy per task id
system.cpu.dcache.tags.tag_accesses         404616479                       # Number of tag accesses
system.cpu.dcache.tags.data_accesses        404616479                       # Number of data accesses

---------- End Simulation Statistics   ----------
