
---------- Begin Simulation Statistics ----------
final_tick                               2541691754500                       # Number of ticks from beginning of simulation (restored from checkpoints and never reset)
host_inst_rate                                 193530                       # Simulator instruction rate (inst/s)
host_mem_usage                                 748868                       # Number of bytes of host memory used
host_op_rate                                   193529                       # Simulator op (including micro ops) rate (op/s)
host_seconds                                    21.69                       # Real time elapsed on the host
host_tick_rate                              538632263                       # Simulator tick rate (ticks/s)
sim_freq                                 1000000000000                       # Frequency of simulated ticks
sim_insts                                     4197276                       # Number of instructions simulated
sim_ops                                       4197276                       # Number of ops (including micro ops) simulated
sim_seconds                                  0.011682                       # Number of seconds simulated
sim_ticks                                 11681909500                       # Number of ticks simulated
system.cpu.branchPred.BTBCorrect                    0                       # Number of correct BTB predictions (this stat may not work properly.
system.cpu.branchPred.BTBHitPct             58.817019                       # BTB Hit Percentage
system.cpu.branchPred.BTBHits                  328973                       # Number of BTB hits
system.cpu.branchPred.BTBLookups               559316                       # Number of BTB lookups
system.cpu.branchPred.RASInCorrect               2644                       # Number of incorrect RAS predictions.
system.cpu.branchPred.condIncorrect             57161                       # Number of conditional branches incorrect
system.cpu.branchPred.condPredicted            861086                       # Number of conditional branches predicted
system.cpu.branchPred.indirectHits              47653                       # Number of indirect target hits.
system.cpu.branchPred.indirectLookups          194653                       # Number of indirect predictor lookups.
system.cpu.branchPred.indirectMisses           147000                       # Number of indirect misses.
system.cpu.branchPred.lookups                 1033022                       # Number of BP lookups
system.cpu.branchPred.loop_predictor.loopPredictorCorrect       643186                       # Number of times the loop predictor is the provider and the prediction is correct
system.cpu.branchPred.loop_predictor.loopPredictorWrong       142932                       # Number of times the loop predictor is the provider and the prediction is wrong
system.cpu.branchPred.tage.bimodalAltMatchProviderCorrect         1695                       # Number of times TAGE Alt Match is the bimodal and it is the provider and the prediction is correct
system.cpu.branchPred.tage.bimodalAltMatchProviderWrong          740                       # Number of times TAGE Alt Match is the bimodal and it is the provider and the prediction is wrong
system.cpu.branchPred.tage.tageAltMatchProvider::0       114432                       # TAGE provider for alt match
system.cpu.branchPred.tage.tageAltMatchProvider::1        17850                       # TAGE provider for alt match
system.cpu.branchPred.tage.tageAltMatchProvider::2        14407                       # TAGE provider for alt match
system.cpu.branchPred.tage.tageAltMatchProvider::3        27607                       # TAGE provider for alt match
system.cpu.branchPred.tage.tageAltMatchProvider::4        17638                       # TAGE provider for alt match
system.cpu.branchPred.tage.tageAltMatchProvider::5        16046                       # TAGE provider for alt match
system.cpu.branchPred.tage.tageAltMatchProvider::6         4008                       # TAGE provider for alt match
system.cpu.branchPred.tage.tageAltMatchProvider::7         4658                       # TAGE provider for alt match
system.cpu.branchPred.tage.tageAltMatchProvider::8         1519                       # TAGE provider for alt match
system.cpu.branchPred.tage.tageAltMatchProvider::9          559                       # TAGE provider for alt match
system.cpu.branchPred.tage.tageAltMatchProvider::10          208                       # TAGE provider for alt match
system.cpu.branchPred.tage.tageAltMatchProvider::11          225                       # TAGE provider for alt match
system.cpu.branchPred.tage.tageAltMatchProvider::12            0                       # TAGE provider for alt match
system.cpu.branchPred.tage.tageAltMatchProviderCorrect         3835                       # Number of times TAGE Alt Match is the provider and the prediction is correct
system.cpu.branchPred.tage.tageAltMatchProviderWouldHaveHit         4281                       # Number of times TAGE Longest Match is the provider, the prediction is wrong and Alt Match prediction was correct
system.cpu.branchPred.tage.tageAltMatchProviderWrong         2062                       # Number of times TAGE Alt Match is the provider and the prediction is wrong
system.cpu.branchPred.tage.tageBimodalProviderCorrect       557340                       # Number of times there are no hits on the TAGE tables and the bimodal prediction is correct
system.cpu.branchPred.tage.tageBimodalProviderWrong         7186                       # Number of times there are no hits on the TAGE tables and the bimodal prediction is wrong
system.cpu.branchPred.tage.tageLongestMatchProvider::0            0                       # TAGE provider for longest match
system.cpu.branchPred.tage.tageLongestMatchProvider::1        49484                       # TAGE provider for longest match
system.cpu.branchPred.tage.tageLongestMatchProvider::2        31363                       # TAGE provider for longest match
system.cpu.branchPred.tage.tageLongestMatchProvider::3        30954                       # TAGE provider for longest match
system.cpu.branchPred.tage.tageLongestMatchProvider::4        29817                       # TAGE provider for longest match
system.cpu.branchPred.tage.tageLongestMatchProvider::5        33022                       # TAGE provider for longest match
system.cpu.branchPred.tage.tageLongestMatchProvider::6        20196                       # TAGE provider for longest match
system.cpu.branchPred.tage.tageLongestMatchProvider::7         9247                       # TAGE provider for longest match
system.cpu.branchPred.tage.tageLongestMatchProvider::8        11578                       # TAGE provider for longest match
system.cpu.branchPred.tage.tageLongestMatchProvider::9         2259                       # TAGE provider for longest match
system.cpu.branchPred.tage.tageLongestMatchProvider::10          752                       # TAGE provider for longest match
system.cpu.branchPred.tage.tageLongestMatchProvider::11          241                       # TAGE provider for longest match
system.cpu.branchPred.tage.tageLongestMatchProvider::12          244                       # TAGE provider for longest match
system.cpu.branchPred.tage.tageLongestMatchProviderCorrect       202143                       # Number of times TAGE Longest Match is the provider and the prediction is correct
system.cpu.branchPred.tage.tageLongestMatchProviderWouldHaveHit         1789                       # Number of times TAGE Alt Match is the provider, the prediction is wrong and Longest Match prediction was correct
system.cpu.branchPred.tage.tageLongestMatchProviderWrong        11117                       # Number of times TAGE Longest Match is the provider and the prediction is wrong
system.cpu.branchPred.usedRAS                   62987                       # Number of times the RAS was used to get a target.
system.cpu.branchPredindirectMispredicted        25631                       # Number of mispredicted indirect branches.
system.cpu.committedInsts                     4197276                       # Number of instructions committed
system.cpu.committedOps                       4197276                       # Number of ops (including micro ops) committed
system.cpu.cpi                               5.563151                       # CPI: cycles per instruction
system.cpu.discardedOps                        185872                       # Number of ops (including micro ops) which were discarded before commit
system.cpu.dtb.data_accesses                   607806                       # DTB accesses
system.cpu.dtb.data_acv                           130                       # DTB access violations
system.cpu.dtb.data_hits                      1450993                       # DTB hits
system.cpu.dtb.data_misses                       7555                       # DTB misses
system.cpu.dtb.fetch_accesses                       0                       # ITB accesses
system.cpu.dtb.fetch_acv                            0                       # ITB acv
system.cpu.dtb.fetch_hits                           0                       # ITB hits
system.cpu.dtb.fetch_misses                         0                       # ITB misses
system.cpu.dtb.read_accesses                   406066                       # DTB read accesses
system.cpu.dtb.read_acv                            43                       # DTB read access violations
system.cpu.dtb.read_hits                       848449                       # DTB read hits
system.cpu.dtb.read_misses                       6746                       # DTB read misses
system.cpu.dtb.write_accesses                  201740                       # DTB write accesses
system.cpu.dtb.write_acv                           87                       # DTB write access violations
system.cpu.dtb.write_hits                      602544                       # DTB write hits
system.cpu.dtb.write_misses                       809                       # DTB write misses
system.cpu.fetch2.amo_instructions                  0                       # Number of memory atomic instructions successfully decoded
system.cpu.fetch2.fp_instructions               18076                       # Number of floating point instructions successfully decoded
system.cpu.fetch2.int_instructions            3384713                       # Number of integer instructions successfully decoded
system.cpu.fetch2.load_instructions           1023037                       # Number of memory load instructions successfully decoded
system.cpu.fetch2.store_instructions           654394                       # Number of memory store instructions successfully decoded
system.cpu.fetch2.vec_instructions                  0                       # Number of SIMD instructions successfully decoded
system.cpu.idleCycles                        16675830                       # Total number of cycles that the object has spent stopped
system.cpu.ipc                               0.179754                       # IPC: instructions per cycle
system.cpu.itb.data_accesses                        0                       # DTB accesses
system.cpu.itb.data_acv                             0                       # DTB access violations
system.cpu.itb.data_hits                            0                       # DTB hits
system.cpu.itb.data_misses                          0                       # DTB misses
system.cpu.itb.fetch_accesses                  892728                       # ITB accesses
system.cpu.itb.fetch_acv                          504                       # ITB acv
system.cpu.itb.fetch_hits                      887025                       # ITB hits
system.cpu.itb.fetch_misses                      5703                       # ITB misses
system.cpu.itb.read_accesses                        0                       # DTB read accesses
system.cpu.itb.read_acv                             0                       # DTB read access violations
system.cpu.itb.read_hits                            0                       # DTB read hits
system.cpu.itb.read_misses                          0                       # DTB read misses
system.cpu.itb.write_accesses                       0                       # DTB write accesses
system.cpu.itb.write_acv                            0                       # DTB write access violations
system.cpu.itb.write_hits                           0                       # DTB write hits
system.cpu.itb.write_misses                         0                       # DTB write misses
system.cpu.kern.callpal::swpctx                   574      9.47%      9.47% # number of callpals executed
system.cpu.kern.callpal::tbi                       25      0.41%      9.88% # number of callpals executed
system.cpu.kern.callpal::swpipl                  4201     69.28%     79.16% # number of callpals executed
system.cpu.kern.callpal::rdps                      48      0.79%     79.95% # number of callpals executed
system.cpu.kern.callpal::wrusp                      4      0.07%     80.01% # number of callpals executed
system.cpu.kern.callpal::rdusp                      3      0.05%     80.06% # number of callpals executed
system.cpu.kern.callpal::rti                      896     14.78%     94.84% # number of callpals executed
system.cpu.kern.callpal::callsys                  235      3.88%     98.71% # number of callpals executed
system.cpu.kern.callpal::imb                       78      1.29%    100.00% # number of callpals executed
system.cpu.kern.callpal::total                   6064                       # number of callpals executed
system.cpu.kern.inst.arm                            0                       # number of arm instructions executed
system.cpu.kern.inst.hwrei                      14407                       # number of hwrei instructions executed
system.cpu.kern.inst.quiesce                        9                       # number of quiesce instructions executed
system.cpu.kern.ipl_count::0                     2425     47.42%     47.42% # number of times we switched to this ipl
system.cpu.kern.ipl_count::21                       5      0.10%     47.52% # number of times we switched to this ipl
system.cpu.kern.ipl_count::22                      12      0.23%     47.75% # number of times we switched to this ipl
system.cpu.kern.ipl_count::31                    2672     52.25%    100.00% # number of times we switched to this ipl
system.cpu.kern.ipl_count::total                 5114                       # number of times we switched to this ipl
system.cpu.kern.ipl_good::0                      2412     49.82%     49.82% # number of times we switched to this ipl from a different ipl
system.cpu.kern.ipl_good::21                        5      0.10%     49.93% # number of times we switched to this ipl from a different ipl
system.cpu.kern.ipl_good::22                       12      0.25%     50.18% # number of times we switched to this ipl from a different ipl
system.cpu.kern.ipl_good::31                     2412     49.82%    100.00% # number of times we switched to this ipl from a different ipl
system.cpu.kern.ipl_good::total                  4841                       # number of times we switched to this ipl from a different ipl
system.cpu.kern.ipl_ticks::0              10773652000     92.19%     92.19% # number of cycles we spent at this ipl
system.cpu.kern.ipl_ticks::21                 8954000      0.08%     92.27% # number of cycles we spent at this ipl
system.cpu.kern.ipl_ticks::22                18126000      0.16%     92.42% # number of cycles we spent at this ipl
system.cpu.kern.ipl_ticks::31               885471000      7.58%    100.00% # number of cycles we spent at this ipl
system.cpu.kern.ipl_ticks::total          11686203000                       # number of cycles we spent at this ipl
system.cpu.kern.ipl_used::0                  0.994639                       # fraction of swpipl calls that actually changed the ipl
system.cpu.kern.ipl_used::21                        1                       # fraction of swpipl calls that actually changed the ipl
system.cpu.kern.ipl_used::22                        1                       # fraction of swpipl calls that actually changed the ipl
system.cpu.kern.ipl_used::31                 0.902695                       # fraction of swpipl calls that actually changed the ipl
system.cpu.kern.ipl_used::total              0.946617                       # fraction of swpipl calls that actually changed the ipl
system.cpu.kern.mode_good::kernel                 870                      
system.cpu.kern.mode_good::user                   870                      
system.cpu.kern.mode_good::idle                     0                      
system.cpu.kern.mode_switch::kernel              1470                       # number of protection mode switches
system.cpu.kern.mode_switch::user                 870                       # number of protection mode switches
system.cpu.kern.mode_switch::idle                   0                       # number of protection mode switches
system.cpu.kern.mode_switch_good::kernel     0.591837                       # fraction of useful protection mode switches
system.cpu.kern.mode_switch_good::user              1                       # fraction of useful protection mode switches
system.cpu.kern.mode_switch_good::idle            nan                       # fraction of useful protection mode switches
system.cpu.kern.mode_switch_good::total      0.743590                       # fraction of useful protection mode switches
system.cpu.kern.mode_ticks::kernel         7933857500     67.89%     67.89% # number of ticks spent at the given mode
system.cpu.kern.mode_ticks::user           3752345500     32.11%    100.00% # number of ticks spent at the given mode
system.cpu.kern.mode_ticks::idle                    0      0.00%    100.00% # number of ticks spent at the given mode
system.cpu.kern.swap_context                      574                       # number of times the context was actually changed
system.cpu.numCycles                         23350079                       # number of cpu cycles simulated
system.cpu.numFetchSuspends                         9                       # Number of times Execute suspended instruction fetching
system.cpu.numWorkItemsCompleted                    0                       # number of work items this cpu completed
system.cpu.numWorkItemsStarted                      0                       # number of work items this cpu started
system.cpu.op_class_0::No_OpClass               85454      2.04%      2.04% # Class of committed instruction
system.cpu.op_class_0::IntAlu                 2542114     60.57%     62.60% # Class of committed instruction
system.cpu.op_class_0::IntMult                   3673      0.09%     62.69% # Class of committed instruction
system.cpu.op_class_0::IntDiv                       0      0.00%     62.69% # Class of committed instruction
system.cpu.op_class_0::FloatAdd                  8286      0.20%     62.89% # Class of committed instruction
system.cpu.op_class_0::FloatCmp                     0      0.00%     62.89% # Class of committed instruction
system.cpu.op_class_0::FloatCvt                     0      0.00%     62.89% # Class of committed instruction
system.cpu.op_class_0::FloatMult                    0      0.00%     62.89% # Class of committed instruction
system.cpu.op_class_0::FloatMultAcc                 0      0.00%     62.89% # Class of committed instruction
system.cpu.op_class_0::FloatDiv                  1593      0.04%     62.92% # Class of committed instruction
system.cpu.op_class_0::FloatMisc                    0      0.00%     62.92% # Class of committed instruction
system.cpu.op_class_0::FloatSqrt                    0      0.00%     62.92% # Class of committed instruction
system.cpu.op_class_0::SimdAdd                      0      0.00%     62.92% # Class of committed instruction
system.cpu.op_class_0::SimdAddAcc                   0      0.00%     62.92% # Class of committed instruction
system.cpu.op_class_0::SimdAlu                      0      0.00%     62.92% # Class of committed instruction
system.cpu.op_class_0::SimdCmp                      0      0.00%     62.92% # Class of committed instruction
system.cpu.op_class_0::SimdCvt                      0      0.00%     62.92% # Class of committed instruction
system.cpu.op_class_0::SimdMisc                     0      0.00%     62.92% # Class of committed instruction
system.cpu.op_class_0::SimdMult                     0      0.00%     62.92% # Class of committed instruction
system.cpu.op_class_0::SimdMultAcc                  0      0.00%     62.92% # Class of committed instruction
system.cpu.op_class_0::SimdShift                    0      0.00%     62.92% # Class of committed instruction
system.cpu.op_class_0::SimdShiftAcc                 0      0.00%     62.92% # Class of committed instruction
system.cpu.op_class_0::SimdDiv                      0      0.00%     62.92% # Class of committed instruction
system.cpu.op_class_0::SimdSqrt                     0      0.00%     62.92% # Class of committed instruction
system.cpu.op_class_0::SimdFloatAdd                 0      0.00%     62.92% # Class of committed instruction
system.cpu.op_class_0::SimdFloatAlu                 0      0.00%     62.92% # Class of committed instruction
system.cpu.op_class_0::SimdFloatCmp                 0      0.00%     62.92% # Class of committed instruction
system.cpu.op_class_0::SimdFloatCvt                 0      0.00%     62.92% # Class of committed instruction
system.cpu.op_class_0::SimdFloatDiv                 0      0.00%     62.92% # Class of committed instruction
system.cpu.op_class_0::SimdFloatMisc                0      0.00%     62.92% # Class of committed instruction
system.cpu.op_class_0::SimdFloatMult                0      0.00%     62.92% # Class of committed instruction
system.cpu.op_class_0::SimdFloatMultAcc             0      0.00%     62.92% # Class of committed instruction
system.cpu.op_class_0::SimdFloatSqrt                0      0.00%     62.92% # Class of committed instruction
system.cpu.op_class_0::SimdReduceAdd                0      0.00%     62.92% # Class of committed instruction
system.cpu.op_class_0::SimdReduceAlu                0      0.00%     62.92% # Class of committed instruction
system.cpu.op_class_0::SimdReduceCmp                0      0.00%     62.92% # Class of committed instruction
system.cpu.op_class_0::SimdFloatReduceAdd            0      0.00%     62.92% # Class of committed instruction
system.cpu.op_class_0::SimdFloatReduceCmp            0      0.00%     62.92% # Class of committed instruction
system.cpu.op_class_0::SimdAes                      0      0.00%     62.92% # Class of committed instruction
system.cpu.op_class_0::SimdAesMix                   0      0.00%     62.92% # Class of committed instruction
system.cpu.op_class_0::SimdSha1Hash                 0      0.00%     62.92% # Class of committed instruction
system.cpu.op_class_0::SimdSha1Hash2                0      0.00%     62.92% # Class of committed instruction
system.cpu.op_class_0::SimdSha256Hash               0      0.00%     62.92% # Class of committed instruction
system.cpu.op_class_0::SimdSha256Hash2              0      0.00%     62.92% # Class of committed instruction
system.cpu.op_class_0::SimdShaSigma2                0      0.00%     62.92% # Class of committed instruction
system.cpu.op_class_0::SimdShaSigma3                0      0.00%     62.92% # Class of committed instruction
system.cpu.op_class_0::SimdPredAlu                  0      0.00%     62.92% # Class of committed instruction
system.cpu.op_class_0::MemRead                 839710     20.01%     82.93% # Class of committed instruction
system.cpu.op_class_0::MemWrite                592891     14.13%     97.06% # Class of committed instruction
system.cpu.op_class_0::FloatMemRead              9988      0.24%     97.29% # Class of committed instruction
system.cpu.op_class_0::FloatMemWrite             8788      0.21%     97.50% # Class of committed instruction
system.cpu.op_class_0::IprAccess               104779      2.50%    100.00% # Class of committed instruction
system.cpu.op_class_0::InstPrefetch                 0      0.00%    100.00% # Class of committed instruction
system.cpu.op_class_0::total                  4197276                       # Class of committed instruction
system.cpu.quiesceCycles                        13740                       # Total number of cycles that CPU has spent quiesced or waiting for an interrupt
system.cpu.tickCycles                         6674249                       # Number of cycles that the object actually ticked
system.disk0.dma_read_bytes                         0                       # Number of bytes transfered via DMA reads (not PRD).
system.disk0.dma_read_full_pages                    0                       # Number of full page size DMA reads (not PRD).
system.disk0.dma_read_txs                           0                       # Number of DMA read transactions (not PRD).
system.disk0.dma_write_bytes                    12288                       # Number of bytes transfered via DMA writes.
system.disk0.dma_write_full_pages                   0                       # Number of full page size DMA writes.
system.disk0.dma_write_txs                          3                       # Number of DMA write transactions.
system.disk2.dma_read_bytes                         0                       # Number of bytes transfered via DMA reads (not PRD).
system.disk2.dma_read_full_pages                    0                       # Number of full page size DMA reads (not PRD).
system.disk2.dma_read_txs                           0                       # Number of DMA read transactions (not PRD).
system.disk2.dma_write_bytes                        0                       # Number of bytes transfered via DMA writes.
system.disk2.dma_write_full_pages                   0                       # Number of full page size DMA writes.
system.disk2.dma_write_txs                          0                       # Number of DMA write transactions.
system.membus.snoop_filter.hit_multi_requests          437                       # Number of requests hitting in the snoop filter with multiple (>1) holders of the requested data.
system.membus.snoop_filter.hit_multi_snoops            0                       # Number of snoops hitting in the snoop filter with multiple (>1) holders of the requested data.
system.membus.snoop_filter.hit_single_requests       154784                       # Number of requests hitting in the snoop filter with a single holder of the requested data.
system.membus.snoop_filter.hit_single_snoops            0                       # Number of snoops hitting in the snoop filter with a single holder of the requested data.
system.membus.snoop_filter.tot_requests        311169                       # Total number of requests made to the snoop filter.
system.membus.snoop_filter.tot_snoops               0                       # Total number of snoops made to the snoop filter.
system.tsunami.ethernet.coalescedRxDesc           nan                       # average number of RxDesc's coalesced into each post
system.tsunami.ethernet.coalescedRxIdle           nan                       # average number of RxIdle's coalesced into each post
system.tsunami.ethernet.coalescedRxOk             nan                       # average number of RxOk's coalesced into each post
system.tsunami.ethernet.coalescedRxOrn            nan                       # average number of RxOrn's coalesced into each post
system.tsunami.ethernet.coalescedSwi              nan                       # average number of Swi's coalesced into each post
system.tsunami.ethernet.coalescedTotal            nan                       # average number of interrupts coalesced into each post
system.tsunami.ethernet.coalescedTxDesc           nan                       # average number of TxDesc's coalesced into each post
system.tsunami.ethernet.coalescedTxIdle           nan                       # average number of TxIdle's coalesced into each post
system.tsunami.ethernet.coalescedTxOk             nan                       # average number of TxOk's coalesced into each post
system.tsunami.ethernet.descDMAReads                0                       # Number of descriptors the device read w/ DMA
system.tsunami.ethernet.descDMAWrites               0                       # Number of descriptors the device wrote w/ DMA
system.tsunami.ethernet.descDmaReadBytes            0                       # number of descriptor bytes read w/ DMA
system.tsunami.ethernet.descDmaWriteBytes            0                       # number of descriptor bytes write w/ DMA
system.tsunami.ethernet.droppedPackets              0                       # number of packets dropped
system.tsunami.ethernet.postedInterrupts            0                       # number of posts to CPU
system.tsunami.ethernet.postedRxDesc                0                       # number of RxDesc interrupts posted to CPU
system.tsunami.ethernet.postedRxIdle                0                       # number of rxIdle interrupts posted to CPU
system.tsunami.ethernet.postedRxOk                  0                       # number of RxOk interrupts posted to CPU
system.tsunami.ethernet.postedRxOrn                 0                       # number of RxOrn posted to CPU
system.tsunami.ethernet.postedSwi                   0                       # number of software interrupts posted to CPU
system.tsunami.ethernet.postedTxDesc                0                       # number of TxDesc interrupts posted to CPU
system.tsunami.ethernet.postedTxIdle                0                       # number of TxIdle interrupts posted to CPU
system.tsunami.ethernet.postedTxOk                  0                       # number of TxOk interrupts posted to CPU
system.tsunami.ethernet.totalRxDesc                 0                       # total number of RxDesc written to ISR
system.tsunami.ethernet.totalRxIdle                 0                       # total number of RxIdle written to ISR
system.tsunami.ethernet.totalRxOk                   0                       # total number of RxOk written to ISR
system.tsunami.ethernet.totalRxOrn                  0                       # total number of RxOrn written to ISR
system.tsunami.ethernet.totalSwi                    0                       # total number of Swi written to ISR
system.tsunami.ethernet.totalTxDesc                 0                       # total number of TxDesc written to ISR
system.tsunami.ethernet.totalTxIdle                 0                       # total number of TxIdle written to ISR
system.tsunami.ethernet.totalTxOk                   0                       # total number of TxOk written to ISR
system.bridge.pwrStateResidencyTicks::UNDEFINED 2541691754500                       # Cumulative time (in ticks) in various power states
system.voltage_domain.voltage                       1                       # Voltage in Volts
system.iocache.pwrStateResidencyTicks::UNDEFINED 2541691754500                       # Cumulative time (in ticks) in various power states
system.iocache.demand_misses::.tsunami.ide          195                       # number of demand (read+write) misses
system.iocache.demand_misses::total               195                       # number of demand (read+write) misses
system.iocache.overall_misses::.tsunami.ide          195                       # number of overall misses
system.iocache.overall_misses::total              195                       # number of overall misses
system.iocache.demand_miss_latency::.tsunami.ide     22824458                       # number of demand (read+write) miss cycles
system.iocache.demand_miss_latency::total     22824458                       # number of demand (read+write) miss cycles
system.iocache.overall_miss_latency::.tsunami.ide     22824458                       # number of overall miss cycles
system.iocache.overall_miss_latency::total     22824458                       # number of overall miss cycles
system.iocache.demand_accesses::.tsunami.ide          195                       # number of demand (read+write) accesses
system.iocache.demand_accesses::total             195                       # number of demand (read+write) accesses
system.iocache.overall_accesses::.tsunami.ide          195                       # number of overall (read+write) accesses
system.iocache.overall_accesses::total            195                       # number of overall (read+write) accesses
system.iocache.demand_miss_rate::.tsunami.ide            1                       # miss rate for demand accesses
system.iocache.demand_miss_rate::total              1                       # miss rate for demand accesses
system.iocache.overall_miss_rate::.tsunami.ide            1                       # miss rate for overall accesses
system.iocache.overall_miss_rate::total             1                       # miss rate for overall accesses
system.iocache.demand_avg_miss_latency::.tsunami.ide 117048.502564                       # average overall miss latency
system.iocache.demand_avg_miss_latency::total 117048.502564                       # average overall miss latency
system.iocache.overall_avg_miss_latency::.tsunami.ide 117048.502564                       # average overall miss latency
system.iocache.overall_avg_miss_latency::total 117048.502564                       # average overall miss latency
system.iocache.blocked_cycles::no_mshrs             0                       # number of cycles access was blocked
system.iocache.blocked_cycles::no_targets            0                       # number of cycles access was blocked
system.iocache.blocked::no_mshrs                    0                       # number of cycles access was blocked
system.iocache.blocked::no_targets                  0                       # number of cycles access was blocked
system.iocache.avg_blocked_cycles::no_mshrs          nan                       # average number of cycles each access was blocked
system.iocache.avg_blocked_cycles::no_targets          nan                       # average number of cycles each access was blocked
system.iocache.writebacks::.writebacks            176                       # number of writebacks
system.iocache.writebacks::total                  176                       # number of writebacks
system.iocache.demand_mshr_misses::.tsunami.ide          195                       # number of demand (read+write) MSHR misses
system.iocache.demand_mshr_misses::total          195                       # number of demand (read+write) MSHR misses
system.iocache.overall_mshr_misses::.tsunami.ide          195                       # number of overall MSHR misses
system.iocache.overall_mshr_misses::total          195                       # number of overall MSHR misses
system.iocache.demand_mshr_miss_latency::.tsunami.ide     13060493                       # number of demand (read+write) MSHR miss cycles
system.iocache.demand_mshr_miss_latency::total     13060493                       # number of demand (read+write) MSHR miss cycles
system.iocache.overall_mshr_miss_latency::.tsunami.ide     13060493                       # number of overall MSHR miss cycles
system.iocache.overall_mshr_miss_latency::total     13060493                       # number of overall MSHR miss cycles
system.iocache.demand_mshr_miss_rate::.tsunami.ide            1                       # mshr miss rate for demand accesses
system.iocache.demand_mshr_miss_rate::total            1                       # mshr miss rate for demand accesses
system.iocache.overall_mshr_miss_rate::.tsunami.ide            1                       # mshr miss rate for overall accesses
system.iocache.overall_mshr_miss_rate::total            1                       # mshr miss rate for overall accesses
system.iocache.demand_avg_mshr_miss_latency::.tsunami.ide 66976.887179                       # average overall mshr miss latency
system.iocache.demand_avg_mshr_miss_latency::total 66976.887179                       # average overall mshr miss latency
system.iocache.overall_avg_mshr_miss_latency::.tsunami.ide 66976.887179                       # average overall mshr miss latency
system.iocache.overall_avg_mshr_miss_latency::total 66976.887179                       # average overall mshr miss latency
system.iocache.replacements                       179                       # number of replacements
system.iocache.ReadReq_misses::.tsunami.ide            3                       # number of ReadReq misses
system.iocache.ReadReq_misses::total                3                       # number of ReadReq misses
system.iocache.ReadReq_miss_latency::.tsunami.ide       349497                       # number of ReadReq miss cycles
system.iocache.ReadReq_miss_latency::total       349497                       # number of ReadReq miss cycles
system.iocache.ReadReq_accesses::.tsunami.ide            3                       # number of ReadReq accesses(hits+misses)
system.iocache.ReadReq_accesses::total              3                       # number of ReadReq accesses(hits+misses)
system.iocache.ReadReq_miss_rate::.tsunami.ide            1                       # miss rate for ReadReq accesses
system.iocache.ReadReq_miss_rate::total             1                       # miss rate for ReadReq accesses
system.iocache.ReadReq_avg_miss_latency::.tsunami.ide       116499                       # average ReadReq miss latency
system.iocache.ReadReq_avg_miss_latency::total       116499                       # average ReadReq miss latency
system.iocache.ReadReq_mshr_misses::.tsunami.ide            3                       # number of ReadReq MSHR misses
system.iocache.ReadReq_mshr_misses::total            3                       # number of ReadReq MSHR misses
system.iocache.ReadReq_mshr_miss_latency::.tsunami.ide       199497                       # number of ReadReq MSHR miss cycles
system.iocache.ReadReq_mshr_miss_latency::total       199497                       # number of ReadReq MSHR miss cycles
system.iocache.ReadReq_mshr_miss_rate::.tsunami.ide            1                       # mshr miss rate for ReadReq accesses
system.iocache.ReadReq_mshr_miss_rate::total            1                       # mshr miss rate for ReadReq accesses
system.iocache.ReadReq_avg_mshr_miss_latency::.tsunami.ide        66499                       # average ReadReq mshr miss latency
system.iocache.ReadReq_avg_mshr_miss_latency::total        66499                       # average ReadReq mshr miss latency
system.iocache.WriteLineReq_misses::.tsunami.ide          192                       # number of WriteLineReq misses
system.iocache.WriteLineReq_misses::total          192                       # number of WriteLineReq misses
system.iocache.WriteLineReq_miss_latency::.tsunami.ide     22474961                       # number of WriteLineReq miss cycles
system.iocache.WriteLineReq_miss_latency::total     22474961                       # number of WriteLineReq miss cycles
system.iocache.WriteLineReq_accesses::.tsunami.ide          192                       # number of WriteLineReq accesses(hits+misses)
system.iocache.WriteLineReq_accesses::total          192                       # number of WriteLineReq accesses(hits+misses)
system.iocache.WriteLineReq_miss_rate::.tsunami.ide            1                       # miss rate for WriteLineReq accesses
system.iocache.WriteLineReq_miss_rate::total            1                       # miss rate for WriteLineReq accesses
system.iocache.WriteLineReq_avg_miss_latency::.tsunami.ide 117057.088542                       # average WriteLineReq miss latency
system.iocache.WriteLineReq_avg_miss_latency::total 117057.088542                       # average WriteLineReq miss latency
system.iocache.WriteLineReq_mshr_misses::.tsunami.ide          192                       # number of WriteLineReq MSHR misses
system.iocache.WriteLineReq_mshr_misses::total          192                       # number of WriteLineReq MSHR misses
system.iocache.WriteLineReq_mshr_miss_latency::.tsunami.ide     12860996                       # number of WriteLineReq MSHR miss cycles
system.iocache.WriteLineReq_mshr_miss_latency::total     12860996                       # number of WriteLineReq MSHR miss cycles
system.iocache.WriteLineReq_mshr_miss_rate::.tsunami.ide            1                       # mshr miss rate for WriteLineReq accesses
system.iocache.WriteLineReq_mshr_miss_rate::total            1                       # mshr miss rate for WriteLineReq accesses
system.iocache.WriteLineReq_avg_mshr_miss_latency::.tsunami.ide 66984.354167                       # average WriteLineReq mshr miss latency
system.iocache.WriteLineReq_avg_mshr_miss_latency::total 66984.354167                       # average WriteLineReq mshr miss latency
system.iocache.tags.pwrStateResidencyTicks::UNDEFINED 2541691754500                       # Cumulative time (in ticks) in various power states
system.iocache.tags.tagsinuse                3.296596                       # Cycle average of tags in use
system.iocache.tags.total_refs                    179                       # Total number of references to valid blocks.
system.iocache.tags.sampled_refs                  179                       # Sample count of references to valid blocks.
system.iocache.tags.avg_refs                        1                       # Average number of references to valid blocks.
system.iocache.tags.warmup_cycle         2539283768000                       # Cycle when the warmup percentage was hit.
system.iocache.tags.occ_blocks::.tsunami.ide     3.296596                       # Average occupied blocks per requestor
system.iocache.tags.occ_percent::.tsunami.ide     0.206037                       # Average percentage of cache occupancy
system.iocache.tags.occ_percent::total       0.206037                       # Average percentage of cache occupancy
system.iocache.tags.occ_task_id_blocks::1023           16                       # Occupied blocks per task id
system.iocache.tags.age_task_id_blocks_1023::3           16                       # Occupied blocks per task id
system.iocache.tags.occ_task_id_percent::1023            1                       # Percentage of cache occupancy per task id
system.iocache.tags.tag_accesses                 1755                       # Number of tag accesses
system.iocache.tags.data_accesses                1755                       # Number of data accesses
system.membus.pwrStateResidencyTicks::UNDEFINED 2541691754500                       # Cumulative time (in ticks) in various power states
system.membus.trans_dist::ReadReq                 108                       # Transaction distribution
system.membus.trans_dist::ReadResp             127320                       # Transaction distribution
system.membus.trans_dist::WriteReq                 99                       # Transaction distribution
system.membus.trans_dist::WriteResp                99                       # Transaction distribution
system.membus.trans_dist::WritebackDirty        34848                       # Transaction distribution
system.membus.trans_dist::WritebackClean        85786                       # Transaction distribution
system.membus.trans_dist::CleanEvict            34126                       # Transaction distribution
system.membus.trans_dist::UpgradeReq               16                       # Transaction distribution
system.membus.trans_dist::ReadExReq             28986                       # Transaction distribution
system.membus.trans_dist::ReadExResp            28986                       # Transaction distribution
system.membus.trans_dist::ReadCleanReq          86376                       # Transaction distribution
system.membus.trans_dist::ReadSharedReq         40839                       # Transaction distribution
system.membus.trans_dist::BadAddressError            3                       # Transaction distribution
system.membus.trans_dist::InvalidateReq           192                       # Transaction distribution
system.membus.pkt_count_system.iocache.mem_side::system.mem_ctrls.port          374                       # Packet count per connected master and slave (bytes)
system.membus.pkt_count_system.iocache.mem_side::total          374                       # Packet count per connected master and slave (bytes)
system.membus.pkt_count_system.cpu.icache.mem_side::system.mem_ctrls.port       258476                       # Packet count per connected master and slave (bytes)
system.membus.pkt_count_system.cpu.icache.mem_side::total       258476                       # Packet count per connected master and slave (bytes)
system.membus.pkt_count_system.cpu.dcache.mem_side::system.bridge.slave          414                       # Packet count per connected master and slave (bytes)
system.membus.pkt_count_system.cpu.dcache.mem_side::system.mem_ctrls.port       208449                       # Packet count per connected master and slave (bytes)
system.membus.pkt_count_system.cpu.dcache.mem_side::system.membus.badaddr_responder.pio            6                       # Packet count per connected master and slave (bytes)
system.membus.pkt_count_system.cpu.dcache.mem_side::total       208869                       # Packet count per connected master and slave (bytes)
system.membus.pkt_count::total                 467719                       # Packet count per connected master and slave (bytes)
system.membus.pkt_size_system.iocache.mem_side::system.mem_ctrls.port        11264                       # Cumulative packet size per connected master and slave (bytes)
system.membus.pkt_size_system.iocache.mem_side::total        11264                       # Cumulative packet size per connected master and slave (bytes)
system.membus.pkt_size_system.cpu.icache.mem_side::system.mem_ctrls.port     11014400                       # Cumulative packet size per connected master and slave (bytes)
system.membus.pkt_size_system.cpu.icache.mem_side::total     11014400                       # Cumulative packet size per connected master and slave (bytes)
system.membus.pkt_size_system.cpu.dcache.mem_side::system.bridge.slave          433                       # Cumulative packet size per connected master and slave (bytes)
system.membus.pkt_size_system.cpu.dcache.mem_side::system.mem_ctrls.port      6687424                       # Cumulative packet size per connected master and slave (bytes)
system.membus.pkt_size_system.cpu.dcache.mem_side::total      6687857                       # Cumulative packet size per connected master and slave (bytes)
system.membus.pkt_size::total                17713521                       # Cumulative packet size per connected master and slave (bytes)
system.membus.snoops                               65                       # Total snoops (count)
system.membus.snoopTraffic                       4160                       # Total snoop traffic (bytes)
system.membus.snoop_fanout::samples            156616                       # Request fanout histogram
system.membus.snoop_fanout::mean             0.002797                       # Request fanout histogram
system.membus.snoop_fanout::stdev            0.052810                       # Request fanout histogram
system.membus.snoop_fanout::underflows              0      0.00%      0.00% # Request fanout histogram
system.membus.snoop_fanout::0                  156178     99.72%     99.72% # Request fanout histogram
system.membus.snoop_fanout::1                     438      0.28%    100.00% # Request fanout histogram
system.membus.snoop_fanout::2                       0      0.00%    100.00% # Request fanout histogram
system.membus.snoop_fanout::3                       0      0.00%    100.00% # Request fanout histogram
system.membus.snoop_fanout::overflows               0      0.00%    100.00% # Request fanout histogram
system.membus.snoop_fanout::min_value               0                       # Request fanout histogram
system.membus.snoop_fanout::max_value               1                       # Request fanout histogram
system.membus.snoop_fanout::total              156616                       # Request fanout histogram
system.membus.reqLayer0.occupancy              354000                       # Layer occupancy (ticks)
system.membus.reqLayer0.utilization               0.0                       # Layer utilization (%)
system.membus.reqLayer1.occupancy           816019038                       # Layer occupancy (ticks)
system.membus.reqLayer1.utilization               7.0                       # Layer utilization (%)
system.membus.reqLayer2.occupancy                4000                       # Layer occupancy (ticks)
system.membus.reqLayer2.utilization               0.0                       # Layer utilization (%)
system.membus.respLayer1.occupancy              17997                       # Layer occupancy (ticks)
system.membus.respLayer1.utilization              0.0                       # Layer utilization (%)
system.membus.respLayer3.occupancy          375628250                       # Layer occupancy (ticks)
system.membus.respLayer3.utilization              3.2                       # Layer utilization (%)
system.membus.badaddr_responder.pwrStateResidencyTicks::UNDEFINED 2541691754500                       # Cumulative time (in ticks) in various power states
system.membus.respLayer2.occupancy          457947000                       # Layer occupancy (ticks)
system.membus.respLayer2.utilization              3.9                       # Layer utilization (%)
system.clk_domain.clock                          1000                       # Clock period in ticks
system.tsunami.fake_uart1.pwrStateResidencyTicks::UNDEFINED 2541691754500                       # Cumulative time (in ticks) in various power states
system.tsunami.fake_uart2.pwrStateResidencyTicks::UNDEFINED 2541691754500                       # Cumulative time (in ticks) in various power states
system.tsunami.fake_uart3.pwrStateResidencyTicks::UNDEFINED 2541691754500                       # Cumulative time (in ticks) in various power states
system.tsunami.fake_uart4.pwrStateResidencyTicks::UNDEFINED 2541691754500                       # Cumulative time (in ticks) in various power states
system.tsunami.fake_ppc.pwrStateResidencyTicks::UNDEFINED 2541691754500                       # Cumulative time (in ticks) in various power states
system.tsunami.cchip.pwrStateResidencyTicks::UNDEFINED 2541691754500                       # Cumulative time (in ticks) in various power states
system.tsunami.io.pwrStateResidencyTicks::UNDEFINED 2541691754500                       # Cumulative time (in ticks) in various power states
system.tsunami.pchip.pwrStateResidencyTicks::UNDEFINED 2541691754500                       # Cumulative time (in ticks) in various power states
system.tsunami.fake_ata1.pwrStateResidencyTicks::UNDEFINED 2541691754500                       # Cumulative time (in ticks) in various power states
system.tsunami.fake_ata0.pwrStateResidencyTicks::UNDEFINED 2541691754500                       # Cumulative time (in ticks) in various power states
system.tsunami.backdoor.pwrStateResidencyTicks::UNDEFINED 2541691754500                       # Cumulative time (in ticks) in various power states
system.tsunami.fake_pnp_read3.pwrStateResidencyTicks::UNDEFINED 2541691754500                       # Cumulative time (in ticks) in various power states
system.tsunami.fake_pnp_read2.pwrStateResidencyTicks::UNDEFINED 2541691754500                       # Cumulative time (in ticks) in various power states
system.tsunami.fake_pnp_read1.pwrStateResidencyTicks::UNDEFINED 2541691754500                       # Cumulative time (in ticks) in various power states
system.tsunami.fake_pnp_read0.pwrStateResidencyTicks::UNDEFINED 2541691754500                       # Cumulative time (in ticks) in various power states
system.tsunami.fake_pnp_read7.pwrStateResidencyTicks::UNDEFINED 2541691754500                       # Cumulative time (in ticks) in various power states
system.tsunami.fake_pnp_read6.pwrStateResidencyTicks::UNDEFINED 2541691754500                       # Cumulative time (in ticks) in various power states
system.tsunami.fake_pnp_read5.pwrStateResidencyTicks::UNDEFINED 2541691754500                       # Cumulative time (in ticks) in various power states
system.tsunami.fake_pnp_read4.pwrStateResidencyTicks::UNDEFINED 2541691754500                       # Cumulative time (in ticks) in various power states
system.tsunami.fake_pnp_write.pwrStateResidencyTicks::UNDEFINED 2541691754500                       # Cumulative time (in ticks) in various power states
system.tsunami.fb.pwrStateResidencyTicks::UNDEFINED 2541691754500                       # Cumulative time (in ticks) in various power states
system.tsunami.fake_pnp_addr.pwrStateResidencyTicks::UNDEFINED 2541691754500                       # Cumulative time (in ticks) in various power states
system.tsunami.fake_OROM.pwrStateResidencyTicks::UNDEFINED 2541691754500                       # Cumulative time (in ticks) in various power states
system.tsunami.uart.pwrStateResidencyTicks::UNDEFINED 2541691754500                       # Cumulative time (in ticks) in various power states
system.tsunami.fake_sm_chip.pwrStateResidencyTicks::UNDEFINED 2541691754500                       # Cumulative time (in ticks) in various power states
system.tsunami.ethernet.pwrStateResidencyTicks::UNDEFINED 2541691754500                       # Cumulative time (in ticks) in various power states
system.tsunami.ide.pwrStateResidencyTicks::UNDEFINED 2541691754500                       # Cumulative time (in ticks) in various power states
system.cpu_voltage_domain.voltage                   1                       # Voltage in Volts
system.mem_ctrls.pwrStateResidencyTicks::UNDEFINED 2541691754500                       # Cumulative time (in ticks) in various power states
system.mem_ctrls.bytes_read::.cpu.inst        5524096                       # Number of bytes read from this memory
system.mem_ctrls.bytes_read::.cpu.data        4468416                       # Number of bytes read from this memory
system.mem_ctrls.bytes_read::total            9992512                       # Number of bytes read from this memory
system.mem_ctrls.bytes_inst_read::.cpu.inst      5524096                       # Number of instructions bytes read from this memory
system.mem_ctrls.bytes_inst_read::total       5524096                       # Number of instructions bytes read from this memory
system.mem_ctrls.bytes_written::.writebacks      2230272                       # Number of bytes written to this memory
system.mem_ctrls.bytes_written::total         2230272                       # Number of bytes written to this memory
system.mem_ctrls.num_reads::.cpu.inst           86314                       # Number of read requests responded to by this memory
system.mem_ctrls.num_reads::.cpu.data           69819                       # Number of read requests responded to by this memory
system.mem_ctrls.num_reads::total              156133                       # Number of read requests responded to by this memory
system.mem_ctrls.num_writes::.writebacks        34848                       # Number of write requests responded to by this memory
system.mem_ctrls.num_writes::total              34848                       # Number of write requests responded to by this memory
system.mem_ctrls.bw_read::.cpu.inst         472876117                       # Total read bandwidth from this memory (bytes/s)
system.mem_ctrls.bw_read::.cpu.data         382507329                       # Total read bandwidth from this memory (bytes/s)
system.mem_ctrls.bw_read::total             855383446                       # Total read bandwidth from this memory (bytes/s)
system.mem_ctrls.bw_inst_read::.cpu.inst    472876117                       # Instruction read bandwidth from this memory (bytes/s)
system.mem_ctrls.bw_inst_read::total        472876117                       # Instruction read bandwidth from this memory (bytes/s)
system.mem_ctrls.bw_write::.writebacks      190916733                       # Write bandwidth from this memory (bytes/s)
system.mem_ctrls.bw_write::total            190916733                       # Write bandwidth from this memory (bytes/s)
system.mem_ctrls.bw_total::.writebacks      190916733                       # Total bandwidth to/from this memory (bytes/s)
system.mem_ctrls.bw_total::.cpu.inst        472876117                       # Total bandwidth to/from this memory (bytes/s)
system.mem_ctrls.bw_total::.cpu.data        382507329                       # Total bandwidth to/from this memory (bytes/s)
system.mem_ctrls.bw_total::total           1046300179                       # Total bandwidth to/from this memory (bytes/s)
system.mem_ctrls.avgPriority_.writebacks::samples    118262.00                       # Average QoS priority value for accepted requests
system.mem_ctrls.avgPriority_.cpu.inst::samples     76551.00                       # Average QoS priority value for accepted requests
system.mem_ctrls.avgPriority_.cpu.data::samples     69340.00                       # Average QoS priority value for accepted requests
system.mem_ctrls.priorityMinLatency      0.000000018750                       # per QoS priority minimum request to response latency (s)
system.mem_ctrls.priorityMaxLatency      0.000169361750                       # per QoS priority maximum request to response latency (s)
system.mem_ctrls.numReadWriteTurnArounds         7284                       # Number of turnarounds from READ to WRITE
system.mem_ctrls.numWriteReadTurnArounds         7284                       # Number of turnarounds from WRITE to READ
system.mem_ctrls.numStayReadState              404611                       # Number of times bus staying in READ state
system.mem_ctrls.numStayWriteState             111039                       # Number of times bus staying in WRITE state
system.mem_ctrls.readReqs                      156133                       # Number of read requests accepted
system.mem_ctrls.writeReqs                     120416                       # Number of write requests accepted
system.mem_ctrls.readBursts                    156133                       # Number of DRAM read bursts, including those serviced by the write queue
system.mem_ctrls.writeBursts                   120416                       # Number of DRAM write bursts, including those merged in the write queue
system.mem_ctrls.servicedByWrQ                  10242                       # Number of DRAM read bursts serviced by the write queue
system.mem_ctrls.mergedWrBursts                  2154                       # Number of DRAM write bursts merged with an existing one
system.mem_ctrls.neitherReadNorWriteReqs            0                       # Number of requests that are neither read nor write
system.mem_ctrls.perBankRdBursts::0              8768                       # Per bank write bursts
system.mem_ctrls.perBankRdBursts::1              6721                       # Per bank write bursts
system.mem_ctrls.perBankRdBursts::2              9617                       # Per bank write bursts
system.mem_ctrls.perBankRdBursts::3              7048                       # Per bank write bursts
system.mem_ctrls.perBankRdBursts::4              8323                       # Per bank write bursts
system.mem_ctrls.perBankRdBursts::5             10082                       # Per bank write bursts
system.mem_ctrls.perBankRdBursts::6              8430                       # Per bank write bursts
system.mem_ctrls.perBankRdBursts::7              8712                       # Per bank write bursts
system.mem_ctrls.perBankRdBursts::8             11499                       # Per bank write bursts
system.mem_ctrls.perBankRdBursts::9              9245                       # Per bank write bursts
system.mem_ctrls.perBankRdBursts::10            10372                       # Per bank write bursts
system.mem_ctrls.perBankRdBursts::11            12133                       # Per bank write bursts
system.mem_ctrls.perBankRdBursts::12             8859                       # Per bank write bursts
system.mem_ctrls.perBankRdBursts::13            13575                       # Per bank write bursts
system.mem_ctrls.perBankRdBursts::14             5576                       # Per bank write bursts
system.mem_ctrls.perBankRdBursts::15             6931                       # Per bank write bursts
system.mem_ctrls.perBankWrBursts::0              7041                       # Per bank write bursts
system.mem_ctrls.perBankWrBursts::1              4562                       # Per bank write bursts
system.mem_ctrls.perBankWrBursts::2              8110                       # Per bank write bursts
system.mem_ctrls.perBankWrBursts::3              7825                       # Per bank write bursts
system.mem_ctrls.perBankWrBursts::4              7592                       # Per bank write bursts
system.mem_ctrls.perBankWrBursts::5              9858                       # Per bank write bursts
system.mem_ctrls.perBankWrBursts::6              7185                       # Per bank write bursts
system.mem_ctrls.perBankWrBursts::7              6902                       # Per bank write bursts
system.mem_ctrls.perBankWrBursts::8             10364                       # Per bank write bursts
system.mem_ctrls.perBankWrBursts::9              8435                       # Per bank write bursts
system.mem_ctrls.perBankWrBursts::10             7732                       # Per bank write bursts
system.mem_ctrls.perBankWrBursts::11             8136                       # Per bank write bursts
system.mem_ctrls.perBankWrBursts::12             5449                       # Per bank write bursts
system.mem_ctrls.perBankWrBursts::13             9989                       # Per bank write bursts
system.mem_ctrls.perBankWrBursts::14             3225                       # Per bank write bursts
system.mem_ctrls.perBankWrBursts::15             5829                       # Per bank write bursts
system.mem_ctrls.avgRdQLen                       1.09                       # Average read queue length when enqueuing
system.mem_ctrls.avgWrQLen                      25.78                       # Average write queue length when enqueuing
system.mem_ctrls.totQLat                   1995679000                       # Total ticks spent queuing
system.mem_ctrls.totBusLat                  729455000                       # Total ticks spent in databus transfers
system.mem_ctrls.totMemAccLat              4731135250                       # Total ticks spent from burst creation until serviced by the DRAM
system.mem_ctrls.avgQLat                     13679.25                       # Average queueing delay per DRAM burst
system.mem_ctrls.avgBusLat                    5000.00                       # Average bus latency per DRAM burst
system.mem_ctrls.avgMemAccLat                32429.25                       # Average memory access latency per DRAM burst
system.mem_ctrls.numRdRetry                         0                       # Number of times read queue was full causing retry
system.mem_ctrls.numWrRetry                         0                       # Number of times write queue was full causing retry
system.mem_ctrls.readRowHits                   103435                       # Number of row buffer hits during reads
system.mem_ctrls.writeRowHits                   79710                       # Number of row buffer hits during writes
system.mem_ctrls.readRowHitRate                 70.90                       # Row buffer hit rate for reads
system.mem_ctrls.writeRowHitRate                67.40                       # Row buffer hit rate for writes
system.mem_ctrls.readPktSize::0                     0                       # Read request sizes (log2)
system.mem_ctrls.readPktSize::1                     0                       # Read request sizes (log2)
system.mem_ctrls.readPktSize::2                     0                       # Read request sizes (log2)
system.mem_ctrls.readPktSize::3                     0                       # Read request sizes (log2)
system.mem_ctrls.readPktSize::4                     0                       # Read request sizes (log2)
system.mem_ctrls.readPktSize::5                     0                       # Read request sizes (log2)
system.mem_ctrls.readPktSize::6                156133                       # Read request sizes (log2)
system.mem_ctrls.writePktSize::0                    0                       # Write request sizes (log2)
system.mem_ctrls.writePktSize::1                    0                       # Write request sizes (log2)
system.mem_ctrls.writePktSize::2                    0                       # Write request sizes (log2)
system.mem_ctrls.writePktSize::3                    0                       # Write request sizes (log2)
system.mem_ctrls.writePktSize::4                    0                       # Write request sizes (log2)
system.mem_ctrls.writePktSize::5                    0                       # Write request sizes (log2)
system.mem_ctrls.writePktSize::6               120416                       # Write request sizes (log2)
system.mem_ctrls.rdQLenPdf::0                  133695                       # What read queue length does an incoming req see
system.mem_ctrls.rdQLenPdf::1                   11884                       # What read queue length does an incoming req see
system.mem_ctrls.rdQLenPdf::2                     312                       # What read queue length does an incoming req see
system.mem_ctrls.rdQLenPdf::3                       0                       # What read queue length does an incoming req see
system.mem_ctrls.rdQLenPdf::4                       0                       # What read queue length does an incoming req see
system.mem_ctrls.rdQLenPdf::5                       0                       # What read queue length does an incoming req see
system.mem_ctrls.rdQLenPdf::6                       0                       # What read queue length does an incoming req see
system.mem_ctrls.rdQLenPdf::7                       0                       # What read queue length does an incoming req see
system.mem_ctrls.rdQLenPdf::8                       0                       # What read queue length does an incoming req see
system.mem_ctrls.rdQLenPdf::9                       0                       # What read queue length does an incoming req see
system.mem_ctrls.rdQLenPdf::10                      0                       # What read queue length does an incoming req see
system.mem_ctrls.rdQLenPdf::11                      0                       # What read queue length does an incoming req see
system.mem_ctrls.rdQLenPdf::12                      0                       # What read queue length does an incoming req see
system.mem_ctrls.rdQLenPdf::13                      0                       # What read queue length does an incoming req see
system.mem_ctrls.rdQLenPdf::14                      0                       # What read queue length does an incoming req see
system.mem_ctrls.rdQLenPdf::15                      0                       # What read queue length does an incoming req see
system.mem_ctrls.rdQLenPdf::16                      0                       # What read queue length does an incoming req see
system.mem_ctrls.rdQLenPdf::17                      0                       # What read queue length does an incoming req see
system.mem_ctrls.rdQLenPdf::18                      0                       # What read queue length does an incoming req see
system.mem_ctrls.rdQLenPdf::19                      0                       # What read queue length does an incoming req see
system.mem_ctrls.rdQLenPdf::20                      0                       # What read queue length does an incoming req see
system.mem_ctrls.rdQLenPdf::21                      0                       # What read queue length does an incoming req see
system.mem_ctrls.rdQLenPdf::22                      0                       # What read queue length does an incoming req see
system.mem_ctrls.rdQLenPdf::23                      0                       # What read queue length does an incoming req see
system.mem_ctrls.rdQLenPdf::24                      0                       # What read queue length does an incoming req see
system.mem_ctrls.rdQLenPdf::25                      0                       # What read queue length does an incoming req see
system.mem_ctrls.rdQLenPdf::26                      0                       # What read queue length does an incoming req see
system.mem_ctrls.rdQLenPdf::27                      0                       # What read queue length does an incoming req see
system.mem_ctrls.rdQLenPdf::28                      0                       # What read queue length does an incoming req see
system.mem_ctrls.rdQLenPdf::29                      0                       # What read queue length does an incoming req see
system.mem_ctrls.rdQLenPdf::30                      0                       # What read queue length does an incoming req see
system.mem_ctrls.rdQLenPdf::31                      0                       # What read queue length does an incoming req see
system.mem_ctrls.wrQLenPdf::0                       1                       # What write queue length does an incoming req see
system.mem_ctrls.wrQLenPdf::1                       1                       # What write queue length does an incoming req see
system.mem_ctrls.wrQLenPdf::2                       1                       # What write queue length does an incoming req see
system.mem_ctrls.wrQLenPdf::3                       1                       # What write queue length does an incoming req see
system.mem_ctrls.wrQLenPdf::4                       1                       # What write queue length does an incoming req see
system.mem_ctrls.wrQLenPdf::5                       1                       # What write queue length does an incoming req see
system.mem_ctrls.wrQLenPdf::6                       1                       # What write queue length does an incoming req see
system.mem_ctrls.wrQLenPdf::7                       1                       # What write queue length does an incoming req see
system.mem_ctrls.wrQLenPdf::8                       1                       # What write queue length does an incoming req see
system.mem_ctrls.wrQLenPdf::9                       1                       # What write queue length does an incoming req see
system.mem_ctrls.wrQLenPdf::10                      1                       # What write queue length does an incoming req see
system.mem_ctrls.wrQLenPdf::11                      1                       # What write queue length does an incoming req see
system.mem_ctrls.wrQLenPdf::12                      1                       # What write queue length does an incoming req see
system.mem_ctrls.wrQLenPdf::13                      1                       # What write queue length does an incoming req see
system.mem_ctrls.wrQLenPdf::14                      1                       # What write queue length does an incoming req see
system.mem_ctrls.wrQLenPdf::15                    628                       # What write queue length does an incoming req see
system.mem_ctrls.wrQLenPdf::16                    714                       # What write queue length does an incoming req see
system.mem_ctrls.wrQLenPdf::17                   6645                       # What write queue length does an incoming req see
system.mem_ctrls.wrQLenPdf::18                   7288                       # What write queue length does an incoming req see
system.mem_ctrls.wrQLenPdf::19                   7401                       # What write queue length does an incoming req see
system.mem_ctrls.wrQLenPdf::20                   7374                       # What write queue length does an incoming req see
system.mem_ctrls.wrQLenPdf::21                   7361                       # What write queue length does an incoming req see
system.mem_ctrls.wrQLenPdf::22                   7455                       # What write queue length does an incoming req see
system.mem_ctrls.wrQLenPdf::23                   7385                       # What write queue length does an incoming req see
system.mem_ctrls.wrQLenPdf::24                   7368                       # What write queue length does an incoming req see
system.mem_ctrls.wrQLenPdf::25                   7358                       # What write queue length does an incoming req see
system.mem_ctrls.wrQLenPdf::26                   7391                       # What write queue length does an incoming req see
system.mem_ctrls.wrQLenPdf::27                   7340                       # What write queue length does an incoming req see
system.mem_ctrls.wrQLenPdf::28                   7346                       # What write queue length does an incoming req see
system.mem_ctrls.wrQLenPdf::29                   7321                       # What write queue length does an incoming req see
system.mem_ctrls.wrQLenPdf::30                   7289                       # What write queue length does an incoming req see
system.mem_ctrls.wrQLenPdf::31                   7286                       # What write queue length does an incoming req see
system.mem_ctrls.wrQLenPdf::32                   7285                       # What write queue length does an incoming req see
system.mem_ctrls.wrQLenPdf::33                      9                       # What write queue length does an incoming req see
system.mem_ctrls.wrQLenPdf::34                      2                       # What write queue length does an incoming req see
system.mem_ctrls.wrQLenPdf::35                      1                       # What write queue length does an incoming req see
system.mem_ctrls.wrQLenPdf::36                      0                       # What write queue length does an incoming req see
system.mem_ctrls.wrQLenPdf::37                      0                       # What write queue length does an incoming req see
system.mem_ctrls.wrQLenPdf::38                      0                       # What write queue length does an incoming req see
system.mem_ctrls.wrQLenPdf::39                      0                       # What write queue length does an incoming req see
system.mem_ctrls.wrQLenPdf::40                      0                       # What write queue length does an incoming req see
system.mem_ctrls.wrQLenPdf::41                      0                       # What write queue length does an incoming req see
system.mem_ctrls.wrQLenPdf::42                      0                       # What write queue length does an incoming req see
system.mem_ctrls.wrQLenPdf::43                      0                       # What write queue length does an incoming req see
system.mem_ctrls.wrQLenPdf::44                      0                       # What write queue length does an incoming req see
system.mem_ctrls.wrQLenPdf::45                      0                       # What write queue length does an incoming req see
system.mem_ctrls.wrQLenPdf::46                      0                       # What write queue length does an incoming req see
system.mem_ctrls.wrQLenPdf::47                      0                       # What write queue length does an incoming req see
system.mem_ctrls.wrQLenPdf::48                      0                       # What write queue length does an incoming req see
system.mem_ctrls.wrQLenPdf::49                      0                       # What write queue length does an incoming req see
system.mem_ctrls.wrQLenPdf::50                      0                       # What write queue length does an incoming req see
system.mem_ctrls.wrQLenPdf::51                      0                       # What write queue length does an incoming req see
system.mem_ctrls.wrQLenPdf::52                      0                       # What write queue length does an incoming req see
system.mem_ctrls.wrQLenPdf::53                      0                       # What write queue length does an incoming req see
system.mem_ctrls.wrQLenPdf::54                      0                       # What write queue length does an incoming req see
system.mem_ctrls.wrQLenPdf::55                      0                       # What write queue length does an incoming req see
system.mem_ctrls.wrQLenPdf::56                      0                       # What write queue length does an incoming req see
system.mem_ctrls.wrQLenPdf::57                      0                       # What write queue length does an incoming req see
system.mem_ctrls.wrQLenPdf::58                      0                       # What write queue length does an incoming req see
system.mem_ctrls.wrQLenPdf::59                      0                       # What write queue length does an incoming req see
system.mem_ctrls.wrQLenPdf::60                      0                       # What write queue length does an incoming req see
system.mem_ctrls.wrQLenPdf::61                      0                       # What write queue length does an incoming req see
system.mem_ctrls.wrQLenPdf::62                      0                       # What write queue length does an incoming req see
system.mem_ctrls.wrQLenPdf::63                      0                       # What write queue length does an incoming req see
system.mem_ctrls.bytesPerActivate::samples        80971                       # Bytes accessed per row activation
system.mem_ctrls.bytesPerActivate::mean    208.754245                       # Bytes accessed per row activation
system.mem_ctrls.bytesPerActivate::gmean   140.499199                       # Bytes accessed per row activation
system.mem_ctrls.bytesPerActivate::stdev   225.149415                       # Bytes accessed per row activation
system.mem_ctrls.bytesPerActivate::0-127        34153     42.18%     42.18% # Bytes accessed per row activation
system.mem_ctrls.bytesPerActivate::128-255        24193     29.88%     72.06% # Bytes accessed per row activation
system.mem_ctrls.bytesPerActivate::256-383        10045     12.41%     84.46% # Bytes accessed per row activation
system.mem_ctrls.bytesPerActivate::384-511         4507      5.57%     90.03% # Bytes accessed per row activation
system.mem_ctrls.bytesPerActivate::512-639         2330      2.88%     92.91% # Bytes accessed per row activation
system.mem_ctrls.bytesPerActivate::640-767         1452      1.79%     94.70% # Bytes accessed per row activation
system.mem_ctrls.bytesPerActivate::768-895          907      1.12%     95.82% # Bytes accessed per row activation
system.mem_ctrls.bytesPerActivate::896-1023          576      0.71%     96.53% # Bytes accessed per row activation
system.mem_ctrls.bytesPerActivate::1024-1151         2808      3.47%    100.00% # Bytes accessed per row activation
system.mem_ctrls.bytesPerActivate::total        80971                       # Bytes accessed per row activation
system.mem_ctrls.rdPerTurnAround::samples         7284                       # Reads before turning the bus around for writes
system.mem_ctrls.rdPerTurnAround::mean      20.027457                       # Reads before turning the bus around for writes
system.mem_ctrls.rdPerTurnAround::gmean     18.403979                       # Reads before turning the bus around for writes
system.mem_ctrls.rdPerTurnAround::stdev     12.793100                       # Reads before turning the bus around for writes
system.mem_ctrls.rdPerTurnAround::0-15           1310     17.98%     17.98% # Reads before turning the bus around for writes
system.mem_ctrls.rdPerTurnAround::16-31          5491     75.38%     93.37% # Reads before turning the bus around for writes
system.mem_ctrls.rdPerTurnAround::32-47           294      4.04%     97.41% # Reads before turning the bus around for writes
[...]
system.cpu.icache.ReadReq_mshr_miss_latency::.cpu.inst  11022168500                       # number of ReadReq MSHR miss cycles
system.cpu.icache.ReadReq_mshr_miss_latency::total  11022168500                       # number of ReadReq MSHR miss cycles
system.cpu.icache.ReadReq_mshr_miss_rate::.cpu.inst     0.003406                       # mshr miss rate for ReadReq accesses
system.cpu.icache.ReadReq_mshr_miss_rate::total     0.003406                       # mshr miss rate for ReadReq accesses
system.cpu.icache.ReadReq_avg_mshr_miss_latency::.cpu.inst 23401.731005                       # average ReadReq mshr miss latency
system.cpu.icache.ReadReq_avg_mshr_miss_latency::total 23401.731005                       # average ReadReq mshr miss latency
system.cpu.icache.tags.pwrStateResidencyTicks::UNDEFINED 311673962500                       # Cumulative time (in ticks) in various power states
system.cpu.icache.tags.tagsinuse                  512                       # Cycle average of tags in use
system.cpu.icache.tags.total_refs           138295796                       # Total number of references to valid blocks.
system.cpu.icache.tags.sampled_refs            471511                       # Sample count of references to valid blocks.
system.cpu.icache.tags.avg_refs            293.303435                       # Average number of references to valid blocks.
system.cpu.icache.tags.warmup_cycle                 0                       # Cycle when the warmup percentage was hit.
system.cpu.icache.tags.occ_blocks::.cpu.inst          512                       # Average occupied blocks per requestor
system.cpu.icache.tags.occ_percent::.cpu.inst            1                       # Average percentage of cache occupancy
system.cpu.icache.tags.occ_percent::total            1                       # Average percentage of cache occupancy
system.cpu.icache.tags.occ_task_id_blocks::1024          512                       # Occupied blocks per task id
system.cpu.icache.tags.age_task_id_blocks_1024::0            2                       # Occupied blocks per task id
system.cpu.icache.tags.age_task_id_blocks_1024::2           46                       # Occupied blocks per task id
system.cpu.icache.tags.age_task_id_blocks_1024::3           15                       # Occupied blocks per task id
system.cpu.icache.tags.age_task_id_blocks_1024::4          449                       # Occupied blocks per task id
system.cpu.icache.tags.occ_task_id_percent::1024            1                       # Percentage of cache occupancy per task id
system.cpu.icache.tags.tag_accesses         277025529                       # Number of tag accesses
system.cpu.icache.tags.data_accesses        277025529                       # Number of data accesses
system.cpu.dcache.pwrStateResidencyTicks::UNDEFINED 311673962500                       # Cumulative time (in ticks) in various power states
system.cpu.dcache.demand_hits::.cpu.data    102642433                       # number of demand (read+write) hits
system.cpu.dcache.demand_hits::total        102642433                       # number of demand (read+write) hits
system.cpu.dcache.overall_hits::.cpu.data    102642433                       # number of overall hits
system.cpu.dcache.overall_hits::total       102642433                       # number of overall hits
system.cpu.dcache.demand_misses::.cpu.data       106650                       # number of demand (read+write) misses
system.cpu.dcache.demand_misses::total         106650                       # number of demand (read+write) misses
system.cpu.dcache.overall_misses::.cpu.data       106650                       # number of overall misses
system.cpu.dcache.overall_misses::total        106650                       # number of overall misses
system.cpu.dcache.demand_miss_latency::.cpu.data   6961798000                       # number of demand (read+write) miss cycles
system.cpu.dcache.demand_miss_latency::total   6961798000                       # number of demand (read+write) miss cycles
system.cpu.dcache.overall_miss_latency::.cpu.data   6961798000                       # number of overall miss cycles
system.cpu.dcache.overall_miss_latency::total   6961798000                       # number of overall miss cycles
system.cpu.dcache.demand_accesses::.cpu.data    102749083                       # number of demand (read+write) accesses
system.cpu.dcache.demand_accesses::total    102749083                       # number of demand (read+write) accesses
system.cpu.dcache.overall_accesses::.cpu.data    102749083                       # number of overall (read+write) accesses
system.cpu.dcache.overall_accesses::total    102749083                       # number of overall (read+write) accesses
system.cpu.dcache.demand_miss_rate::.cpu.data     0.001038                       # miss rate for demand accesses
system.cpu.dcache.demand_miss_rate::total     0.001038                       # miss rate for demand accesses
system.cpu.dcache.overall_miss_rate::.cpu.data     0.001038                       # miss rate for overall accesses
system.cpu.dcache.overall_miss_rate::total     0.001038                       # miss rate for overall accesses
system.cpu.dcache.demand_avg_miss_latency::.cpu.data 65277.055790                       # average overall miss latency
system.cpu.dcache.demand_avg_miss_latency::total 65277.055790                       # average overall miss latency
system.cpu.dcache.overall_avg_miss_latency::.cpu.data 65277.055790                       # average overall miss latency
system.cpu.dcache.overall_avg_miss_latency::total 65277.055790                       # average overall miss latency
system.cpu.dcache.blocked_cycles::no_mshrs            0                       # number of cycles access was blocked
system.cpu.dcache.blocked_cycles::no_targets            0                       # number of cycles access was blocked
system.cpu.dcache.blocked::no_mshrs                 0                       # number of cycles access was blocked
system.cpu.dcache.blocked::no_targets               0                       # number of cycles access was blocked
system.cpu.dcache.avg_blocked_cycles::no_mshrs          nan                       # average number of cycles each access was blocked
system.cpu.dcache.avg_blocked_cycles::no_targets          nan                       # average number of cycles each access was blocked
system.cpu.dcache.writebacks::.writebacks        15732                       # number of writebacks
system.cpu.dcache.writebacks::total             15732                       # number of writebacks
system.cpu.dcache.demand_mshr_hits::.cpu.data         3844                       # number of demand (read+write) MSHR hits
system.cpu.dcache.demand_mshr_hits::total         3844                       # number of demand (read+write) MSHR hits
system.cpu.dcache.overall_mshr_hits::.cpu.data         3844                       # number of overall MSHR hits
system.cpu.dcache.overall_mshr_hits::total         3844                       # number of overall MSHR hits
system.cpu.dcache.demand_mshr_misses::.cpu.data       102806                       # number of demand (read+write) MSHR misses
system.cpu.dcache.demand_mshr_misses::total       102806                       # number of demand (read+write) MSHR misses
system.cpu.dcache.overall_mshr_misses::.cpu.data       102806                       # number of overall MSHR misses
system.cpu.dcache.overall_mshr_misses::total       102806                       # number of overall MSHR misses
system.cpu.dcache.overall_mshr_uncacheable_misses::.cpu.data          319                       # number of overall MSHR uncacheable misses
system.cpu.dcache.overall_mshr_uncacheable_misses::total          319                       # number of overall MSHR uncacheable misses
system.cpu.dcache.demand_mshr_miss_latency::.cpu.data   6738559500                       # number of demand (read+write) MSHR miss cycles
system.cpu.dcache.demand_mshr_miss_latency::total   6738559500                       # number of demand (read+write) MSHR miss cycles
system.cpu.dcache.overall_mshr_miss_latency::.cpu.data   6738559500                       # number of overall MSHR miss cycles
system.cpu.dcache.overall_mshr_miss_latency::total   6738559500                       # number of overall MSHR miss cycles
system.cpu.dcache.demand_mshr_miss_rate::.cpu.data     0.001001                       # mshr miss rate for demand accesses
system.cpu.dcache.demand_mshr_miss_rate::total     0.001001                       # mshr miss rate for demand accesses
system.cpu.dcache.overall_mshr_miss_rate::.cpu.data     0.001001                       # mshr miss rate for overall accesses
system.cpu.dcache.overall_mshr_miss_rate::total     0.001001                       # mshr miss rate for overall accesses
system.cpu.dcache.demand_avg_mshr_miss_latency::.cpu.data 65546.364025                       # average overall mshr miss latency
system.cpu.dcache.demand_avg_mshr_miss_latency::total 65546.364025                       # average overall mshr miss latency
system.cpu.dcache.overall_avg_mshr_miss_latency::.cpu.data 65546.364025                       # average overall mshr miss latency
system.cpu.dcache.overall_avg_mshr_miss_latency::total 65546.364025                       # average overall mshr miss latency
system.cpu.dcache.replacements                 103007                       # number of replacements
system.cpu.dcache.ReadReq_hits::.cpu.data     62004392                       # number of ReadReq hits
system.cpu.dcache.ReadReq_hits::total        62004392                       # number of ReadReq hits
system.cpu.dcache.ReadReq_misses::.cpu.data        88934                       # number of ReadReq misses
system.cpu.dcache.ReadReq_misses::total         88934                       # number of ReadReq misses
system.cpu.dcache.ReadReq_miss_latency::.cpu.data   6045741500                       # number of ReadReq miss cycles
system.cpu.dcache.ReadReq_miss_latency::total   6045741500                       # number of ReadReq miss cycles
system.cpu.dcache.ReadReq_accesses::.cpu.data     62093326                       # number of ReadReq accesses(hits+misses)
system.cpu.dcache.ReadReq_accesses::total     62093326                       # number of ReadReq accesses(hits+misses)
system.cpu.dcache.ReadReq_miss_rate::.cpu.data     0.001432                       # miss rate for ReadReq accesses
system.cpu.dcache.ReadReq_miss_rate::total     0.001432                       # miss rate for ReadReq accesses
system.cpu.dcache.ReadReq_avg_miss_latency::.cpu.data 67980.091978                       # average ReadReq miss latency
system.cpu.dcache.ReadReq_avg_miss_latency::total 67980.091978                       # average ReadReq miss latency
system.cpu.dcache.ReadReq_mshr_hits::.cpu.data           34                       # number of ReadReq MSHR hits
system.cpu.dcache.ReadReq_mshr_hits::total           34                       # number of ReadReq MSHR hits
system.cpu.dcache.ReadReq_mshr_misses::.cpu.data        88900                       # number of ReadReq MSHR misses
system.cpu.dcache.ReadReq_mshr_misses::total        88900                       # number of ReadReq MSHR misses
system.cpu.dcache.ReadReq_mshr_miss_latency::.cpu.data   5953871000                       # number of ReadReq MSHR miss cycles
system.cpu.dcache.ReadReq_mshr_miss_latency::total   5953871000                       # number of ReadReq MSHR miss cycles
system.cpu.dcache.ReadReq_mshr_miss_rate::.cpu.data     0.001432                       # mshr miss rate for ReadReq accesses
system.cpu.dcache.ReadReq_mshr_miss_rate::total     0.001432                       # mshr miss rate for ReadReq accesses
system.cpu.dcache.ReadReq_avg_mshr_miss_latency::.cpu.data 66972.677165                       # average ReadReq mshr miss latency
system.cpu.dcache.ReadReq_avg_mshr_miss_latency::total 66972.677165                       # average ReadReq mshr miss latency
system.cpu.dcache.WriteReq_hits::.cpu.data     40638041                       # number of WriteReq hits
system.cpu.dcache.WriteReq_hits::total       40638041                       # number of WriteReq hits
system.cpu.dcache.WriteReq_misses::.cpu.data        17716                       # number of WriteReq misses
system.cpu.dcache.WriteReq_misses::total        17716                       # number of WriteReq misses
system.cpu.dcache.WriteReq_miss_latency::.cpu.data    916056500                       # number of WriteReq miss cycles
system.cpu.dcache.WriteReq_miss_latency::total    916056500                       # number of WriteReq miss cycles
system.cpu.dcache.WriteReq_accesses::.cpu.data     40655757                       # number of WriteReq accesses(hits+misses)
system.cpu.dcache.WriteReq_accesses::total     40655757                       # number of WriteReq accesses(hits+misses)
system.cpu.dcache.WriteReq_miss_rate::.cpu.data     0.000436                       # miss rate for WriteReq accesses
system.cpu.dcache.WriteReq_miss_rate::total     0.000436                       # miss rate for WriteReq accesses
system.cpu.dcache.WriteReq_avg_miss_latency::.cpu.data 51707.862949                       # average WriteReq miss latency
system.cpu.dcache.WriteReq_avg_miss_latency::total 51707.862949                       # average WriteReq miss latency
system.cpu.dcache.WriteReq_mshr_hits::.cpu.data         3810                       # number of WriteReq MSHR hits
system.cpu.dcache.WriteReq_mshr_hits::total         3810                       # number of WriteReq MSHR hits
system.cpu.dcache.WriteReq_mshr_misses::.cpu.data        13906                       # number of WriteReq MSHR misses
system.cpu.dcache.WriteReq_mshr_misses::total        13906                       # number of WriteReq MSHR misses
system.cpu.dcache.WriteReq_mshr_uncacheable::.cpu.data          319                       # number of WriteReq MSHR uncacheable
system.cpu.dcache.WriteReq_mshr_uncacheable::total          319                       # number of WriteReq MSHR uncacheable
system.cpu.dcache.WriteReq_mshr_miss_latency::.cpu.data    784688500                       # number of WriteReq MSHR miss cycles
system.cpu.dcache.WriteReq_mshr_miss_latency::total    784688500                       # number of WriteReq MSHR miss cycles
system.cpu.dcache.WriteReq_mshr_miss_rate::.cpu.data     0.000342                       # mshr miss rate for WriteReq accesses
system.cpu.dcache.WriteReq_mshr_miss_rate::total     0.000342                       # mshr miss rate for WriteReq accesses
system.cpu.dcache.WriteReq_avg_mshr_miss_latency::.cpu.data 56428.052639                       # average WriteReq mshr miss latency
system.cpu.dcache.WriteReq_avg_mshr_miss_latency::total 56428.052639                       # average WriteReq mshr miss latency
system.cpu.dcache.LoadLockedReq_hits::.cpu.data         1867                       # number of LoadLockedReq hits
system.cpu.dcache.LoadLockedReq_hits::total         1867                       # number of LoadLockedReq hits
system.cpu.dcache.LoadLockedReq_misses::.cpu.data          201                       # number of LoadLockedReq misses
system.cpu.dcache.LoadLockedReq_misses::total          201                       # number of LoadLockedReq misses
system.cpu.dcache.LoadLockedReq_miss_latency::.cpu.data     15503000                       # number of LoadLockedReq miss cycles
system.cpu.dcache.LoadLockedReq_miss_latency::total     15503000                       # number of LoadLockedReq miss cycles
system.cpu.dcache.LoadLockedReq_accesses::.cpu.data         2068                       # number of LoadLockedReq accesses(hits+misses)
system.cpu.dcache.LoadLockedReq_accesses::total         2068                       # number of LoadLockedReq accesses(hits+misses)
system.cpu.dcache.LoadLockedReq_miss_rate::.cpu.data     0.097195                       # miss rate for LoadLockedReq accesses
system.cpu.dcache.LoadLockedReq_miss_rate::total     0.097195                       # miss rate for LoadLockedReq accesses
system.cpu.dcache.LoadLockedReq_avg_miss_latency::.cpu.data 77129.353234                       # average LoadLockedReq miss latency
system.cpu.dcache.LoadLockedReq_avg_miss_latency::total 77129.353234                       # average LoadLockedReq miss latency
system.cpu.dcache.LoadLockedReq_mshr_misses::.cpu.data          201                       # number of LoadLockedReq MSHR misses
system.cpu.dcache.LoadLockedReq_mshr_misses::total          201                       # number of LoadLockedReq MSHR misses
system.cpu.dcache.LoadLockedReq_mshr_miss_latency::.cpu.data     15302000                       # number of LoadLockedReq MSHR miss cycles
system.cpu.dcache.LoadLockedReq_mshr_miss_latency::total     15302000                       # number of LoadLockedReq MSHR miss cycles
system.cpu.dcache.LoadLockedReq_mshr_miss_rate::.cpu.data     0.097195                       # mshr miss rate for LoadLockedReq accesses
system.cpu.dcache.LoadLockedReq_mshr_miss_rate::total     0.097195                       # mshr miss rate for LoadLockedReq accesses
system.cpu.dcache.LoadLockedReq_avg_mshr_miss_latency::.cpu.data 76129.353234                       # average LoadLockedReq mshr miss latency
system.cpu.dcache.LoadLockedReq_avg_mshr_miss_latency::total 76129.353234                       # average LoadLockedReq mshr miss latency
system.cpu.dcache.StoreCondReq_hits::.cpu.data         2068                       # number of StoreCondReq hits
system.cpu.dcache.StoreCondReq_hits::total         2068                       # number of StoreCondReq hits
system.cpu.dcache.StoreCondReq_accesses::.cpu.data         2068                       # number of StoreCondReq accesses(hits+misses)
system.cpu.dcache.StoreCondReq_accesses::total         2068                       # number of StoreCondReq accesses(hits+misses)
system.cpu.dcache.tags.pwrStateResidencyTicks::UNDEFINED 311673962500                       # Cumulative time (in ticks) in various power states
system.cpu.dcache.tags.tagsinuse                 1024                       # Cycle average of tags in use
system.cpu.dcache.tags.total_refs           102790742                       # Total number of references to valid blocks.
system.cpu.dcache.tags.sampled_refs            104031                       # Sample count of references to valid blocks.
system.cpu.dcache.tags.avg_refs            988.077996                       # Average number of references to valid blocks.
system.cpu.dcache.tags.warmup_cycle                 0                       # Cycle when the warmup percentage was hit.
system.cpu.dcache.tags.occ_blocks::.cpu.data         1024                       # Average occupied blocks per requestor
system.cpu.dcache.tags.occ_percent::.cpu.data            1                       # Average percentage of cache occupancy
system.cpu.dcache.tags.occ_percent::total            1                       # Average percentage of cache occupancy
system.cpu.dcache.tags.occ_task_id_blocks::1024         1024                       # Occupied blocks per task id
system.cpu.dcache.tags.age_task_id_blocks_1024::1           21                       # Occupied blocks per task id
system.cpu.dcache.tags.age_task_id_blocks_1024::2          168                       # Occupied blocks per task id
system.cpu.dcache.tags.age_task_id_blocks_1024::3          655                       # Occupied blocks per task id
system.cpu.dcache.tags.age_task_id_blocks_1024::4          180                       # Occupied blocks per task id
system.cpu.dcache.tags.occ_task_id_percent::1024            1                       # Percentage of cache occupancy per task id
system.cpu.dcache.tags.tag_accesses         205609445                       # Number of tag accesses
system.cpu.dcache.tags.data_accesses        205609445                       # Number of data accesses

---------- End Simulation Statistics   ----------
