
---------- Begin Simulation Statistics ----------
final_tick                               2542169064500                       # Number of ticks from beginning of simulation (restored from checkpoints and never reset)
host_inst_rate                                 228723                       # Simulator instruction rate (inst/s)
host_mem_usage                                 740736                       # Number of bytes of host memory used
host_op_rate                                   228721                       # Simulator op (including micro ops) rate (op/s)
host_seconds                                    18.35                       # Real time elapsed on the host
host_tick_rate                              662759984                       # Simulator tick rate (ticks/s)
sim_freq                                 1000000000000                       # Frequency of simulated ticks
sim_insts                                     4196188                       # Number of instructions simulated
sim_ops                                       4196188                       # Number of ops (including micro ops) simulated
sim_seconds                                  0.012159                       # Number of seconds simulated
sim_ticks                                 12159219500                       # Number of ticks simulated
system.cpu.branchPred.BTBCorrect                    0                       # Number of correct BTB predictions (this stat may not work properly.
system.cpu.branchPred.BTBHitPct             51.047045                       # BTB Hit Percentage
system.cpu.branchPred.BTBHits                  364310                       # Number of BTB hits
system.cpu.branchPred.BTBLookups               713675                       # Number of BTB lookups
system.cpu.branchPred.RASInCorrect               2615                       # Number of incorrect RAS predictions.
system.cpu.branchPred.condIncorrect            114708                       # Number of conditional branches incorrect
system.cpu.branchPred.condPredicted            966366                       # Number of conditional branches predicted
system.cpu.branchPred.indirectHits              28737                       # Number of indirect target hits.
system.cpu.branchPred.indirectLookups          193789                       # Number of indirect predictor lookups.
system.cpu.branchPred.indirectMisses           165052                       # Number of indirect misses.
system.cpu.branchPred.lookups                 1172777                       # Number of BP lookups
system.cpu.branchPred.usedRAS                   71961                       # Number of times the RAS was used to get a target.
system.cpu.branchPredindirectMispredicted        29420                       # Number of mispredicted indirect branches.
system.cpu.committedInsts                     4196188                       # Number of instructions committed
system.cpu.committedOps                       4196188                       # Number of ops (including micro ops) committed
system.cpu.cpi                               5.792077                       # CPI: cycles per instruction
system.cpu.discardedOps                        322777                       # Number of ops (including micro ops) which were discarded before commit
system.cpu.dtb.data_accesses                   618828                       # DTB accesses
system.cpu.dtb.data_acv                           129                       # DTB access violations
system.cpu.dtb.data_hits                      1480297                       # DTB hits
system.cpu.dtb.data_misses                       8499                       # DTB misses
system.cpu.dtb.fetch_accesses                       0                       # ITB accesses
system.cpu.dtb.fetch_acv                            0                       # ITB acv
system.cpu.dtb.fetch_hits                           0                       # ITB hits
system.cpu.dtb.fetch_misses                         0                       # ITB misses
system.cpu.dtb.read_accesses                   416929                       # DTB read accesses
system.cpu.dtb.read_acv                            43                       # DTB read access violations
system.cpu.dtb.read_hits                       876063                       # DTB read hits
system.cpu.dtb.read_misses                       7575                       # DTB read misses
system.cpu.dtb.write_accesses                  201899                       # DTB write accesses
system.cpu.dtb.write_acv                           86                       # DTB write access violations
system.cpu.dtb.write_hits                      604234                       # DTB write hits
system.cpu.dtb.write_misses                       924                       # DTB write misses
system.cpu.fetch2.amo_instructions                  0                       # Number of memory atomic instructions successfully decoded
system.cpu.fetch2.fp_instructions               18293                       # Number of floating point instructions successfully decoded
system.cpu.fetch2.int_instructions            3705960                       # Number of integer instructions successfully decoded
system.cpu.fetch2.load_instructions           1167677                       # Number of memory load instructions successfully decoded
system.cpu.fetch2.store_instructions           688170                       # Number of memory store instructions successfully decoded
system.cpu.fetch2.vec_instructions                  0                       # Number of SIMD instructions successfully decoded
system.cpu.idleCycles                        17085016                       # Total number of cycles that the object has spent stopped
system.cpu.ipc                               0.172650                       # IPC: instructions per cycle
system.cpu.itb.data_accesses                        0                       # DTB accesses
system.cpu.itb.data_acv                             0                       # DTB access violations
system.cpu.itb.data_hits                            0                       # DTB hits
system.cpu.itb.data_misses                          0                       # DTB misses
system.cpu.itb.fetch_accesses                  979872                       # ITB accesses
system.cpu.itb.fetch_acv                          395                       # ITB acv
system.cpu.itb.fetch_hits                      974641                       # ITB hits
system.cpu.itb.fetch_misses                      5231                       # ITB misses
system.cpu.itb.read_accesses                        0                       # DTB read accesses
system.cpu.itb.read_acv                             0                       # DTB read access violations
system.cpu.itb.read_hits                            0                       # DTB read hits
system.cpu.itb.read_misses                          0                       # DTB read misses
system.cpu.itb.write_accesses                       0                       # DTB write accesses
system.cpu.itb.write_acv                            0                       # DTB write access violations
system.cpu.itb.write_hits                           0                       # DTB write hits
system.cpu.itb.write_misses                         0                       # DTB write misses
system.cpu.kern.callpal::swpctx                   574      9.41%      9.41% # number of callpals executed
system.cpu.kern.callpal::tbi                       25      0.41%      9.81% # number of callpals executed
system.cpu.kern.callpal::swpipl                  4237     69.42%     79.24% # number of callpals executed
system.cpu.kern.callpal::rdps                      50      0.82%     80.06% # number of callpals executed
system.cpu.kern.callpal::wrusp                      4      0.07%     80.12% # number of callpals executed
system.cpu.kern.callpal::rdusp                      3      0.05%     80.17% # number of callpals executed
system.cpu.kern.callpal::rti                      897     14.70%     94.87% # number of callpals executed
system.cpu.kern.callpal::callsys                  235      3.85%     98.72% # number of callpals executed
system.cpu.kern.callpal::imb                       78      1.28%    100.00% # number of callpals executed
system.cpu.kern.callpal::total                   6103                       # number of callpals executed
system.cpu.kern.inst.arm                            0                       # number of arm instructions executed
system.cpu.kern.inst.hwrei                      14447                       # number of hwrei instructions executed
system.cpu.kern.inst.quiesce                        9                       # number of quiesce instructions executed
system.cpu.kern.ipl_count::0                     2438     47.32%     47.32% # number of times we switched to this ipl
system.cpu.kern.ipl_count::21                       5      0.10%     47.42% # number of times we switched to this ipl
system.cpu.kern.ipl_count::22                      13      0.25%     47.67% # number of times we switched to this ipl
system.cpu.kern.ipl_count::31                    2696     52.33%    100.00% # number of times we switched to this ipl
system.cpu.kern.ipl_count::total                 5152                       # number of times we switched to this ipl
system.cpu.kern.ipl_good::0                      2425     49.82%     49.82% # number of times we switched to this ipl from a different ipl
system.cpu.kern.ipl_good::21                        5      0.10%     49.92% # number of times we switched to this ipl from a different ipl
system.cpu.kern.ipl_good::22                       13      0.27%     50.18% # number of times we switched to this ipl from a different ipl
system.cpu.kern.ipl_good::31                     2425     49.82%    100.00% # number of times we switched to this ipl from a different ipl
system.cpu.kern.ipl_good::total                  4868                       # number of times we switched to this ipl from a different ipl
system.cpu.kern.ipl_ticks::0              11201229500     92.09%     92.09% # number of cycles we spent at this ipl
system.cpu.kern.ipl_ticks::21                 9213500      0.08%     92.16% # number of cycles we spent at this ipl
system.cpu.kern.ipl_ticks::22                19787000      0.16%     92.33% # number of cycles we spent at this ipl
system.cpu.kern.ipl_ticks::31               933322000      7.67%    100.00% # number of cycles we spent at this ipl
system.cpu.kern.ipl_ticks::total          12163552000                       # number of cycles we spent at this ipl
system.cpu.kern.ipl_used::0                  0.994668                       # fraction of swpipl calls that actually changed the ipl
system.cpu.kern.ipl_used::21                        1                       # fraction of swpipl calls that actually changed the ipl
system.cpu.kern.ipl_used::22                        1                       # fraction of swpipl calls that actually changed the ipl
system.cpu.kern.ipl_used::31                 0.899481                       # fraction of swpipl calls that actually changed the ipl
system.cpu.kern.ipl_used::total              0.944876                       # fraction of swpipl calls that actually changed the ipl
system.cpu.kern.mode_good::kernel                 871                      
system.cpu.kern.mode_good::user                   871                      
system.cpu.kern.mode_good::idle                     0                      
system.cpu.kern.mode_switch::kernel              1471                       # number of protection mode switches
system.cpu.kern.mode_switch::user                 871                       # number of protection mode switches
system.cpu.kern.mode_switch::idle                   0                       # number of protection mode switches
system.cpu.kern.mode_switch_good::kernel     0.592114                       # fraction of useful protection mode switches
system.cpu.kern.mode_switch_good::user              1                       # fraction of useful protection mode switches
system.cpu.kern.mode_switch_good::idle            nan                       # fraction of useful protection mode switches
system.cpu.kern.mode_switch_good::total      0.743809                       # fraction of useful protection mode switches
system.cpu.kern.mode_ticks::kernel         8198228000     67.40%     67.40% # number of ticks spent at the given mode
system.cpu.kern.mode_ticks::user           3965324000     32.60%    100.00% # number of ticks spent at the given mode
system.cpu.kern.mode_ticks::idle                    0      0.00%    100.00% # number of ticks spent at the given mode
system.cpu.kern.swap_context                      574                       # number of times the context was actually changed
system.cpu.numCycles                         24304646                       # number of cpu cycles simulated
system.cpu.numFetchSuspends                         9                       # Number of times Execute suspended instruction fetching
system.cpu.numWorkItemsCompleted                    0                       # number of work items this cpu completed
system.cpu.numWorkItemsStarted                      0                       # number of work items this cpu started
system.cpu.op_class_0::No_OpClass               85395      2.04%      2.04% # Class of committed instruction
system.cpu.op_class_0::IntAlu                 2541611     60.57%     62.60% # Class of committed instruction
system.cpu.op_class_0::IntMult                   3684      0.09%     62.69% # Class of committed instruction
system.cpu.op_class_0::IntDiv                       0      0.00%     62.69% # Class of committed instruction
system.cpu.op_class_0::FloatAdd                  8286      0.20%     62.89% # Class of committed instruction
system.cpu.op_class_0::FloatCmp                     0      0.00%     62.89% # Class of committed instruction
system.cpu.op_class_0::FloatCvt                     0      0.00%     62.89% # Class of committed instruction
system.cpu.op_class_0::FloatMult                    0      0.00%     62.89% # Class of committed instruction
system.cpu.op_class_0::FloatMultAcc                 0      0.00%     62.89% # Class of committed instruction
system.cpu.op_class_0::FloatDiv                  1593      0.04%     62.93% # Class of committed instruction
system.cpu.op_class_0::FloatMisc                    0      0.00%     62.93% # Class of committed instruction
system.cpu.op_class_0::FloatSqrt                    0      0.00%     62.93% # Class of committed instruction
system.cpu.op_class_0::SimdAdd                      0      0.00%     62.93% # Class of committed instruction
system.cpu.op_class_0::SimdAddAcc                   0      0.00%     62.93% # Class of committed instruction
system.cpu.op_class_0::SimdAlu                      0      0.00%     62.93% # Class of committed instruction
system.cpu.op_class_0::SimdCmp                      0      0.00%     62.93% # Class of committed instruction
system.cpu.op_class_0::SimdCvt                      0      0.00%     62.93% # Class of committed instruction
system.cpu.op_class_0::SimdMisc                     0      0.00%     62.93% # Class of committed instruction
system.cpu.op_class_0::SimdMult                     0      0.00%     62.93% # Class of committed instruction
system.cpu.op_class_0::SimdMultAcc                  0      0.00%     62.93% # Class of committed instruction
system.cpu.op_class_0::SimdShift                    0      0.00%     62.93% # Class of committed instruction
system.cpu.op_class_0::SimdShiftAcc                 0      0.00%     62.93% # Class of committed instruction
system.cpu.op_class_0::SimdDiv                      0      0.00%     62.93% # Class of committed instruction
system.cpu.op_class_0::SimdSqrt                     0      0.00%     62.93% # Class of committed instruction
system.cpu.op_class_0::SimdFloatAdd                 0      0.00%     62.93% # Class of committed instruction
system.cpu.op_class_0::SimdFloatAlu                 0      0.00%     62.93% # Class of committed instruction
system.cpu.op_class_0::SimdFloatCmp                 0      0.00%     62.93% # Class of committed instruction
system.cpu.op_class_0::SimdFloatCvt                 0      0.00%     62.93% # Class of committed instruction
system.cpu.op_class_0::SimdFloatDiv                 0      0.00%     62.93% # Class of committed instruction
system.cpu.op_class_0::SimdFloatMisc                0      0.00%     62.93% # Class of committed instruction
system.cpu.op_class_0::SimdFloatMult                0      0.00%     62.93% # Class of committed instruction
system.cpu.op_class_0::SimdFloatMultAcc             0      0.00%     62.93% # Class of committed instruction
system.cpu.op_class_0::SimdFloatSqrt                0      0.00%     62.93% # Class of committed instruction
system.cpu.op_class_0::SimdReduceAdd                0      0.00%     62.93% # Class of committed instruction
system.cpu.op_class_0::SimdReduceAlu                0      0.00%     62.93% # Class of committed instruction
system.cpu.op_class_0::SimdReduceCmp                0      0.00%     62.93% # Class of committed instruction
system.cpu.op_class_0::SimdFloatReduceAdd            0      0.00%     62.93% # Class of committed instruction
system.cpu.op_class_0::SimdFloatReduceCmp            0      0.00%     62.93% # Class of committed instruction
system.cpu.op_class_0::SimdAes                      0      0.00%     62.93% # Class of committed instruction
system.cpu.op_class_0::SimdAesMix                   0      0.00%     62.93% # Class of committed instruction
system.cpu.op_class_0::SimdSha1Hash                 0      0.00%     62.93% # Class of committed instruction
system.cpu.op_class_0::SimdSha1Hash2                0      0.00%     62.93% # Class of committed instruction
system.cpu.op_class_0::SimdSha256Hash               0      0.00%     62.93% # Class of committed instruction
system.cpu.op_class_0::SimdSha256Hash2              0      0.00%     62.93% # Class of committed instruction
system.cpu.op_class_0::SimdShaSigma2                0      0.00%     62.93% # Class of committed instruction
system.cpu.op_class_0::SimdShaSigma3                0      0.00%     62.93% # Class of committed instruction
system.cpu.op_class_0::SimdPredAlu                  0      0.00%     62.93% # Class of committed instruction
system.cpu.op_class_0::MemRead                 839343     20.00%     82.93% # Class of committed instruction
system.cpu.op_class_0::MemWrite                592556     14.12%     97.05% # Class of committed instruction
system.cpu.op_class_0::FloatMemRead              9988      0.24%     97.29% # Class of committed instruction
system.cpu.op_class_0::FloatMemWrite             8788      0.21%     97.50% # Class of committed instruction
system.cpu.op_class_0::IprAccess               104944      2.50%    100.00% # Class of committed instruction
system.cpu.op_class_0::InstPrefetch                 0      0.00%    100.00% # Class of committed instruction
system.cpu.op_class_0::total                  4196188                       # Class of committed instruction
system.cpu.quiesceCycles                        13793                       # Total number of cycles that CPU has spent quiesced or waiting for an interrupt
system.cpu.tickCycles                         7219630                       # Number of cycles that the object actually ticked
system.disk0.dma_read_bytes                         0                       # Number of bytes transfered via DMA reads (not PRD).
system.disk0.dma_read_full_pages                    0                       # Number of full page size DMA reads (not PRD).
system.disk0.dma_read_txs                           0                       # Number of DMA read transactions (not PRD).
system.disk0.dma_write_bytes                    12288                       # Number of bytes transfered via DMA writes.
system.disk0.dma_write_full_pages                   0                       # Number of full page size DMA writes.
system.disk0.dma_write_txs                          3                       # Number of DMA write transactions.
system.disk2.dma_read_bytes                         0                       # Number of bytes transfered via DMA reads (not PRD).
system.disk2.dma_read_full_pages                    0                       # Number of full page size DMA reads (not PRD).
system.disk2.dma_read_txs                           0                       # Number of DMA read transactions (not PRD).
system.disk2.dma_write_bytes                        0                       # Number of bytes transfered via DMA writes.
system.disk2.dma_write_full_pages                   0                       # Number of full page size DMA writes.
system.disk2.dma_write_txs                          0                       # Number of DMA write transactions.
system.membus.snoop_filter.hit_multi_requests          437                       # Number of requests hitting in the snoop filter with multiple (>1) holders of the requested data.
system.membus.snoop_filter.hit_multi_snoops            0                       # Number of snoops hitting in the snoop filter with multiple (>1) holders of the requested data.
system.membus.snoop_filter.hit_single_requests       158326                       # Number of requests hitting in the snoop filter with a single holder of the requested data.
system.membus.snoop_filter.hit_single_snoops            0                       # Number of snoops hitting in the snoop filter with a single holder of the requested data.
system.membus.snoop_filter.tot_requests        318258                       # Total number of requests made to the snoop filter.
system.membus.snoop_filter.tot_snoops               0                       # Total number of snoops made to the snoop filter.
system.tsunami.ethernet.coalescedRxDesc           nan                       # average number of RxDesc's coalesced into each post
system.tsunami.ethernet.coalescedRxIdle           nan                       # average number of RxIdle's coalesced into each post
system.tsunami.ethernet.coalescedRxOk             nan                       # average number of RxOk's coalesced into each post
system.tsunami.ethernet.coalescedRxOrn            nan                       # average number of RxOrn's coalesced into each post
system.tsunami.ethernet.coalescedSwi              nan                       # average number of Swi's coalesced into each post
system.tsunami.ethernet.coalescedTotal            nan                       # average number of interrupts coalesced into each post
system.tsunami.ethernet.coalescedTxDesc           nan                       # average number of TxDesc's coalesced into each post
system.tsunami.ethernet.coalescedTxIdle           nan                       # average number of TxIdle's coalesced into each post
system.tsunami.ethernet.coalescedTxOk             nan                       # average number of TxOk's coalesced into each post
system.tsunami.ethernet.descDMAReads                0                       # Number of descriptors the device read w/ DMA
system.tsunami.ethernet.descDMAWrites               0                       # Number of descriptors the device wrote w/ DMA
system.tsunami.ethernet.descDmaReadBytes            0                       # number of descriptor bytes read w/ DMA
system.tsunami.ethernet.descDmaWriteBytes            0                       # number of descriptor bytes write w/ DMA
system.tsunami.ethernet.droppedPackets              0                       # number of packets dropped
system.tsunami.ethernet.postedInterrupts            0                       # number of posts to CPU
system.tsunami.ethernet.postedRxDesc                0                       # number of RxDesc interrupts posted to CPU
system.tsunami.ethernet.postedRxIdle                0                       # number of rxIdle interrupts posted to CPU
system.tsunami.ethernet.postedRxOk                  0                       # number of RxOk interrupts posted to CPU
system.tsunami.ethernet.postedRxOrn                 0                       # number of RxOrn posted to CPU
system.tsunami.ethernet.postedSwi                   0                       # number of software interrupts posted to CPU
system.tsunami.ethernet.postedTxDesc                0                       # number of TxDesc interrupts posted to CPU
system.tsunami.ethernet.postedTxIdle                0                       # number of TxIdle interrupts posted to CPU
system.tsunami.ethernet.postedTxOk                  0                       # number of TxOk interrupts posted to CPU
system.tsunami.ethernet.totalRxDesc                 0                       # total number of RxDesc written to ISR
system.tsunami.ethernet.totalRxIdle                 0                       # total number of RxIdle written to ISR
system.tsunami.ethernet.totalRxOk                   0                       # total number of RxOk written to ISR
system.tsunami.ethernet.totalRxOrn                  0                       # total number of RxOrn written to ISR
system.tsunami.ethernet.totalSwi                    0                       # total number of Swi written to ISR
system.tsunami.ethernet.totalTxDesc                 0                       # total number of TxDesc written to ISR
system.tsunami.ethernet.totalTxIdle                 0                       # total number of TxIdle written to ISR
system.tsunami.ethernet.totalTxOk                   0                       # total number of TxOk written to ISR
system.bridge.pwrStateResidencyTicks::UNDEFINED 2542169064500                       # Cumulative time (in ticks) in various power states
system.voltage_domain.voltage                       1                       # Voltage in Volts
system.iocache.pwrStateResidencyTicks::UNDEFINED 2542169064500                       # Cumulative time (in ticks) in various power states
system.iocache.demand_misses::.tsunami.ide          195                       # number of demand (read+write) misses
system.iocache.demand_misses::total               195                       # number of demand (read+write) misses
system.iocache.overall_misses::.tsunami.ide          195                       # number of overall misses
system.iocache.overall_misses::total              195                       # number of overall misses
system.iocache.demand_miss_latency::.tsunami.ide     22889458                       # number of demand (read+write) miss cycles
system.iocache.demand_miss_latency::total     22889458                       # number of demand (read+write) miss cycles
system.iocache.overall_miss_latency::.tsunami.ide     22889458                       # number of overall miss cycles
system.iocache.overall_miss_latency::total     22889458                       # number of overall miss cycles
system.iocache.demand_accesses::.tsunami.ide          195                       # number of demand (read+write) accesses
system.iocache.demand_accesses::total             195                       # number of demand (read+write) accesses
system.iocache.overall_accesses::.tsunami.ide          195                       # number of overall (read+write) accesses
system.iocache.overall_accesses::total            195                       # number of overall (read+write) accesses
system.iocache.demand_miss_rate::.tsunami.ide            1                       # miss rate for demand accesses
system.iocache.demand_miss_rate::total              1                       # miss rate for demand accesses
system.iocache.overall_miss_rate::.tsunami.ide            1                       # miss rate for overall accesses
system.iocache.overall_miss_rate::total             1                       # miss rate for overall accesses
system.iocache.demand_avg_miss_latency::.tsunami.ide 117381.835897                       # average overall miss latency
system.iocache.demand_avg_miss_latency::total 117381.835897                       # average overall miss latency
system.iocache.overall_avg_miss_latency::.tsunami.ide 117381.835897                       # average overall miss latency
system.iocache.overall_avg_miss_latency::total 117381.835897                       # average overall miss latency
system.iocache.blocked_cycles::no_mshrs             0                       # number of cycles access was blocked
system.iocache.blocked_cycles::no_targets            0                       # number of cycles access was blocked
system.iocache.blocked::no_mshrs                    0                       # number of cycles access was blocked
system.iocache.blocked::no_targets                  0                       # number of cycles access was blocked
system.iocache.avg_blocked_cycles::no_mshrs          nan                       # average number of cycles each access was blocked
system.iocache.avg_blocked_cycles::no_targets          nan                       # average number of cycles each access was blocked
system.iocache.writebacks::.writebacks            176                       # number of writebacks
system.iocache.writebacks::total                  176                       # number of writebacks
system.iocache.demand_mshr_misses::.tsunami.ide          195                       # number of demand (read+write) MSHR misses
system.iocache.demand_mshr_misses::total          195                       # number of demand (read+write) MSHR misses
system.iocache.overall_mshr_misses::.tsunami.ide          195                       # number of overall MSHR misses
system.iocache.overall_mshr_misses::total          195                       # number of overall MSHR misses
system.iocache.demand_mshr_miss_latency::.tsunami.ide     13127484                       # number of demand (read+write) MSHR miss cycles
system.iocache.demand_mshr_miss_latency::total     13127484                       # number of demand (read+write) MSHR miss cycles
system.iocache.overall_mshr_miss_latency::.tsunami.ide     13127484                       # number of overall MSHR miss cycles
system.iocache.overall_mshr_miss_latency::total     13127484                       # number of overall MSHR miss cycles
system.iocache.demand_mshr_miss_rate::.tsunami.ide            1                       # mshr miss rate for demand accesses
system.iocache.demand_mshr_miss_rate::total            1                       # mshr miss rate for demand accesses
system.iocache.overall_mshr_miss_rate::.tsunami.ide            1                       # mshr miss rate for overall accesses
system.iocache.overall_mshr_miss_rate::total            1                       # mshr miss rate for overall accesses
system.iocache.demand_avg_mshr_miss_latency::.tsunami.ide 67320.430769                       # average overall mshr miss latency
system.iocache.demand_avg_mshr_miss_latency::total 67320.430769                       # average overall mshr miss latency
system.iocache.overall_avg_mshr_miss_latency::.tsunami.ide 67320.430769                       # average overall mshr miss latency
system.iocache.overall_avg_mshr_miss_latency::total 67320.430769                       # average overall mshr miss latency
system.iocache.replacements                       179                       # number of replacements
system.iocache.ReadReq_misses::.tsunami.ide            3                       # number of ReadReq misses
system.iocache.ReadReq_misses::total                3                       # number of ReadReq misses
system.iocache.ReadReq_miss_latency::.tsunami.ide       349497                       # number of ReadReq miss cycles
system.iocache.ReadReq_miss_latency::total       349497                       # number of ReadReq miss cycles
system.iocache.ReadReq_accesses::.tsunami.ide            3                       # number of ReadReq accesses(hits+misses)
system.iocache.ReadReq_accesses::total              3                       # number of ReadReq accesses(hits+misses)
system.iocache.ReadReq_miss_rate::.tsunami.ide            1                       # miss rate for ReadReq accesses
system.iocache.ReadReq_miss_rate::total             1                       # miss rate for ReadReq accesses
system.iocache.ReadReq_avg_miss_latency::.tsunami.ide       116499                       # average ReadReq miss latency
system.iocache.ReadReq_avg_miss_latency::total       116499                       # average ReadReq miss latency
system.iocache.ReadReq_mshr_misses::.tsunami.ide            3                       # number of ReadReq MSHR misses
system.iocache.ReadReq_mshr_misses::total            3                       # number of ReadReq MSHR misses
system.iocache.ReadReq_mshr_miss_latency::.tsunami.ide       199497                       # number of ReadReq MSHR miss cycles
system.iocache.ReadReq_mshr_miss_latency::total       199497                       # number of ReadReq MSHR miss cycles
system.iocache.ReadReq_mshr_miss_rate::.tsunami.ide            1                       # mshr miss rate for ReadReq accesses
system.iocache.ReadReq_mshr_miss_rate::total            1                       # mshr miss rate for ReadReq accesses
system.iocache.ReadReq_avg_mshr_miss_latency::.tsunami.ide        66499                       # average ReadReq mshr miss latency
system.iocache.ReadReq_avg_mshr_miss_latency::total        66499                       # average ReadReq mshr miss latency
system.iocache.WriteLineReq_misses::.tsunami.ide          192                       # number of WriteLineReq misses
system.iocache.WriteLineReq_misses::total          192                       # number of WriteLineReq misses
system.iocache.WriteLineReq_miss_latency::.tsunami.ide     22539961                       # number of WriteLineReq miss cycles
system.iocache.WriteLineReq_miss_latency::total     22539961                       # number of WriteLineReq miss cycles
system.iocache.WriteLineReq_accesses::.tsunami.ide          192                       # number of WriteLineReq accesses(hits+misses)
system.iocache.WriteLineReq_accesses::total          192                       # number of WriteLineReq accesses(hits+misses)
system.iocache.WriteLineReq_miss_rate::.tsunami.ide            1                       # miss rate for WriteLineReq accesses
system.iocache.WriteLineReq_miss_rate::total            1                       # miss rate for WriteLineReq accesses
system.iocache.WriteLineReq_avg_miss_latency::.tsunami.ide 117395.630208                       # average WriteLineReq miss latency
system.iocache.WriteLineReq_avg_miss_latency::total 117395.630208                       # average WriteLineReq miss latency
system.iocache.WriteLineReq_mshr_misses::.tsunami.ide          192                       # number of WriteLineReq MSHR misses
system.iocache.WriteLineReq_mshr_misses::total          192                       # number of WriteLineReq MSHR misses
system.iocache.WriteLineReq_mshr_miss_latency::.tsunami.ide     12927987                       # number of WriteLineReq MSHR miss cycles
system.iocache.WriteLineReq_mshr_miss_latency::total     12927987                       # number of WriteLineReq MSHR miss cycles
system.iocache.WriteLineReq_mshr_miss_rate::.tsunami.ide            1                       # mshr miss rate for WriteLineReq accesses
system.iocache.WriteLineReq_mshr_miss_rate::total            1                       # mshr miss rate for WriteLineReq accesses
system.iocache.WriteLineReq_avg_mshr_miss_latency::.tsunami.ide 67333.265625                       # average WriteLineReq mshr miss latency
system.iocache.WriteLineReq_avg_mshr_miss_latency::total 67333.265625                       # average WriteLineReq mshr miss latency
system.iocache.tags.pwrStateResidencyTicks::UNDEFINED 2542169064500                       # Cumulative time (in ticks) in various power states
system.iocache.tags.tagsinuse                3.287408                       # Cycle average of tags in use
system.iocache.tags.total_refs                    179                       # Total number of references to valid blocks.
system.iocache.tags.sampled_refs                  179                       # Sample count of references to valid blocks.
system.iocache.tags.avg_refs                        1                       # Average number of references to valid blocks.
system.iocache.tags.warmup_cycle         2539669717000                       # Cycle when the warmup percentage was hit.
system.iocache.tags.occ_blocks::.tsunami.ide     3.287408                       # Average occupied blocks per requestor
system.iocache.tags.occ_percent::.tsunami.ide     0.205463                       # Average percentage of cache occupancy
system.iocache.tags.occ_percent::total       0.205463                       # Average percentage of cache occupancy
system.iocache.tags.occ_task_id_blocks::1023           16                       # Occupied blocks per task id
system.iocache.tags.age_task_id_blocks_1023::3           16                       # Occupied blocks per task id
system.iocache.tags.occ_task_id_percent::1023            1                       # Percentage of cache occupancy per task id
system.iocache.tags.tag_accesses                 1755                       # Number of tag accesses
system.iocache.tags.data_accesses                1755                       # Number of data accesses
system.membus.pwrStateResidencyTicks::UNDEFINED 2542169064500                       # Cumulative time (in ticks) in various power states
system.membus.trans_dist::ReadReq                 108                       # Transaction distribution
system.membus.trans_dist::ReadResp             130869                       # Transaction distribution
system.membus.trans_dist::WriteReq                100                       # Transaction distribution
system.membus.trans_dist::WriteResp               100                       # Transaction distribution
system.membus.trans_dist::WritebackDirty        34911                       # Transaction distribution
system.membus.trans_dist::WritebackClean        88869                       # Transaction distribution
system.membus.trans_dist::CleanEvict            34525                       # Transaction distribution
system.membus.trans_dist::UpgradeReq               15                       # Transaction distribution
system.membus.trans_dist::ReadExReq             28982                       # Transaction distribution
system.membus.trans_dist::ReadExResp            28982                       # Transaction distribution
system.membus.trans_dist::ReadCleanReq          89459                       # Transaction distribution
system.membus.trans_dist::ReadSharedReq         41305                       # Transaction distribution
system.membus.trans_dist::BadAddressError            3                       # Transaction distribution
system.membus.trans_dist::InvalidateReq           192                       # Transaction distribution
system.membus.pkt_count_system.iocache.mem_side::system.mem_ctrls.port          374                       # Packet count per connected master and slave (bytes)
system.membus.pkt_count_system.iocache.mem_side::total          374                       # Packet count per connected master and slave (bytes)
system.membus.pkt_count_system.cpu.icache.mem_side::system.mem_ctrls.port       267725                       # Packet count per connected master and slave (bytes)
system.membus.pkt_count_system.cpu.icache.mem_side::total       267725                       # Packet count per connected master and slave (bytes)
system.membus.pkt_count_system.cpu.dcache.mem_side::system.bridge.slave          416                       # Packet count per connected master and slave (bytes)
system.membus.pkt_count_system.cpu.dcache.mem_side::system.mem_ctrls.port       209834                       # Packet count per connected master and slave (bytes)
system.membus.pkt_count_system.cpu.dcache.mem_side::system.membus.badaddr_responder.pio            6                       # Packet count per connected master and slave (bytes)
system.membus.pkt_count_system.cpu.dcache.mem_side::total       210256                       # Packet count per connected master and slave (bytes)
system.membus.pkt_count::total                 478355                       # Packet count per connected master and slave (bytes)
system.membus.pkt_size_system.iocache.mem_side::system.mem_ctrls.port        11264                       # Cumulative packet size per connected master and slave (bytes)
system.membus.pkt_size_system.iocache.mem_side::total        11264                       # Cumulative packet size per connected master and slave (bytes)
system.membus.pkt_size_system.cpu.icache.mem_side::system.mem_ctrls.port     11409024                       # Cumulative packet size per connected master and slave (bytes)
system.membus.pkt_size_system.cpu.icache.mem_side::total     11409024                       # Cumulative packet size per connected master and slave (bytes)
system.membus.pkt_size_system.cpu.dcache.mem_side::system.bridge.slave          441                       # Cumulative packet size per connected master and slave (bytes)
system.membus.pkt_size_system.cpu.dcache.mem_side::system.mem_ctrls.port      6721024                       # Cumulative packet size per connected master and slave (bytes)
system.membus.pkt_size_system.cpu.dcache.mem_side::total      6721465                       # Cumulative packet size per connected master and slave (bytes)
system.membus.pkt_size::total                18141753                       # Cumulative packet size per connected master and slave (bytes)
system.membus.snoops                               65                       # Total snoops (count)
system.membus.snoopTraffic                       4160                       # Total snoop traffic (bytes)
system.membus.snoop_fanout::samples            160161                       # Request fanout histogram
system.membus.snoop_fanout::mean             0.002735                       # Request fanout histogram
system.membus.snoop_fanout::stdev            0.052223                       # Request fanout histogram
system.membus.snoop_fanout::underflows              0      0.00%      0.00% # Request fanout histogram
system.membus.snoop_fanout::0                  159723     99.73%     99.73% # Request fanout histogram
system.membus.snoop_fanout::1                     438      0.27%    100.00% # Request fanout histogram
system.membus.snoop_fanout::2                       0      0.00%    100.00% # Request fanout histogram
system.membus.snoop_fanout::3                       0      0.00%    100.00% # Request fanout histogram
system.membus.snoop_fanout::overflows               0      0.00%    100.00% # Request fanout histogram
system.membus.snoop_fanout::min_value               0                       # Request fanout histogram
system.membus.snoop_fanout::max_value               1                       # Request fanout histogram
system.membus.snoop_fanout::total              160161                       # Request fanout histogram
system.membus.reqLayer0.occupancy              353000                       # Layer occupancy (ticks)
system.membus.reqLayer0.utilization               0.0                       # Layer utilization (%)
system.membus.reqLayer1.occupancy           836756029                       # Layer occupancy (ticks)
system.membus.reqLayer1.utilization               6.9                       # Layer utilization (%)
system.membus.reqLayer2.occupancy                4500                       # Layer occupancy (ticks)
system.membus.reqLayer2.utilization               0.0                       # Layer utilization (%)
system.membus.respLayer1.occupancy              17997                       # Layer occupancy (ticks)
system.membus.respLayer1.utilization              0.0                       # Layer utilization (%)
system.membus.respLayer3.occupancy          378193000                       # Layer occupancy (ticks)
system.membus.respLayer3.utilization              3.1                       # Layer utilization (%)
system.membus.badaddr_responder.pwrStateResidencyTicks::UNDEFINED 2542169064500                       # Cumulative time (in ticks) in various power states
system.membus.respLayer2.occupancy          474404750                       # Layer occupancy (ticks)
system.membus.respLayer2.utilization              3.9                       # Layer utilization (%)
system.clk_domain.clock                          1000                       # Clock period in ticks
system.tsunami.fake_uart1.pwrStateResidencyTicks::UNDEFINED 2542169064500                       # Cumulative time (in ticks) in various power states
system.tsunami.fake_uart2.pwrStateResidencyTicks::UNDEFINED 2542169064500                       # Cumulative time (in ticks) in various power states
system.tsunami.fake_uart3.pwrStateResidencyTicks::UNDEFINED 2542169064500                       # Cumulative time (in ticks) in various power states
system.tsunami.fake_uart4.pwrStateResidencyTicks::UNDEFINED 2542169064500                       # Cumulative time (in ticks) in various power states
system.tsunami.fake_ppc.pwrStateResidencyTicks::UNDEFINED 2542169064500                       # Cumulative time (in ticks) in various power states
system.tsunami.cchip.pwrStateResidencyTicks::UNDEFINED 2542169064500                       # Cumulative time (in ticks) in various power states
system.tsunami.io.pwrStateResidencyTicks::UNDEFINED 2542169064500                       # Cumulative time (in ticks) in various power states
system.tsunami.pchip.pwrStateResidencyTicks::UNDEFINED 2542169064500                       # Cumulative time (in ticks) in various power states
system.tsunami.fake_ata1.pwrStateResidencyTicks::UNDEFINED 2542169064500                       # Cumulative time (in ticks) in various power states
system.tsunami.fake_ata0.pwrStateResidencyTicks::UNDEFINED 2542169064500                       # Cumulative time (in ticks) in various power states
system.tsunami.backdoor.pwrStateResidencyTicks::UNDEFINED 2542169064500                       # Cumulative time (in ticks) in various power states
system.tsunami.fake_pnp_read3.pwrStateResidencyTicks::UNDEFINED 2542169064500                       # Cumulative time (in ticks) in various power states
system.tsunami.fake_pnp_read2.pwrStateResidencyTicks::UNDEFINED 2542169064500                       # Cumulative time (in ticks) in various power states
system.tsunami.fake_pnp_read1.pwrStateResidencyTicks::UNDEFINED 2542169064500                       # Cumulative time (in ticks) in various power states
system.tsunami.fake_pnp_read0.pwrStateResidencyTicks::UNDEFINED 2542169064500                       # Cumulative time (in ticks) in various power states
system.tsunami.fake_pnp_read7.pwrStateResidencyTicks::UNDEFINED 2542169064500                       # Cumulative time (in ticks) in various power states
system.tsunami.fake_pnp_read6.pwrStateResidencyTicks::UNDEFINED 2542169064500                       # Cumulative time (in ticks) in various power states
system.tsunami.fake_pnp_read5.pwrStateResidencyTicks::UNDEFINED 2542169064500                       # Cumulative time (in ticks) in various power states
system.tsunami.fake_pnp_read4.pwrStateResidencyTicks::UNDEFINED 2542169064500                       # Cumulative time (in ticks) in various power states
system.tsunami.fake_pnp_write.pwrStateResidencyTicks::UNDEFINED 2542169064500                       # Cumulative time (in ticks) in various power states
system.tsunami.fb.pwrStateResidencyTicks::UNDEFINED 2542169064500                       # Cumulative time (in ticks) in various power states
system.tsunami.fake_pnp_addr.pwrStateResidencyTicks::UNDEFINED 2542169064500                       # Cumulative time (in ticks) in various power states
system.tsunami.fake_OROM.pwrStateResidencyTicks::UNDEFINED 2542169064500                       # Cumulative time (in ticks) in various power states
system.tsunami.uart.pwrStateResidencyTicks::UNDEFINED 2542169064500                       # Cumulative time (in ticks) in various power states
system.tsunami.fake_sm_chip.pwrStateResidencyTicks::UNDEFINED 2542169064500                       # Cumulative time (in ticks) in various power states
system.tsunami.ethernet.pwrStateResidencyTicks::UNDEFINED 2542169064500                       # Cumulative time (in ticks) in various power states
system.tsunami.ide.pwrStateResidencyTicks::UNDEFINED 2542169064500                       # Cumulative time (in ticks) in various power states
system.cpu_voltage_domain.voltage                   1                       # Voltage in Volts
system.mem_ctrls.pwrStateResidencyTicks::UNDEFINED 2542169064500                       # Cumulative time (in ticks) in various power states
system.mem_ctrls.bytes_read::.cpu.inst        5721408                       # Number of bytes read from this memory
system.mem_ctrls.bytes_read::.cpu.data        4497984                       # Number of bytes read from this memory
system.mem_ctrls.bytes_read::total           10219392                       # Number of bytes read from this memory
system.mem_ctrls.bytes_inst_read::.cpu.inst      5721408                       # Number of instructions bytes read from this memory
system.mem_ctrls.bytes_inst_read::total       5721408                       # Number of instructions bytes read from this memory
system.mem_ctrls.bytes_written::.writebacks      2234304                       # Number of bytes written to this memory
system.mem_ctrls.bytes_written::total         2234304                       # Number of bytes written to this memory
system.mem_ctrls.num_reads::.cpu.inst           89397                       # Number of read requests responded to by this memory
system.mem_ctrls.num_reads::.cpu.data           70281                       # Number of read requests responded to by this memory
system.mem_ctrls.num_reads::total              159678                       # Number of read requests responded to by this memory
system.mem_ctrls.num_writes::.writebacks        34911                       # Number of write requests responded to by this memory
system.mem_ctrls.num_writes::total              34911                       # Number of write requests responded to by this memory
system.mem_ctrls.bw_read::.cpu.inst         470540728                       # Total read bandwidth from this memory (bytes/s)
system.mem_ctrls.bw_read::.cpu.data         369923744                       # Total read bandwidth from this memory (bytes/s)
system.mem_ctrls.bw_read::total             840464472                       # Total read bandwidth from this memory (bytes/s)
system.mem_ctrls.bw_inst_read::.cpu.inst    470540728                       # Instruction read bandwidth from this memory (bytes/s)
system.mem_ctrls.bw_inst_read::total        470540728                       # Instruction read bandwidth from this memory (bytes/s)
system.mem_ctrls.bw_write::.writebacks      183753900                       # Write bandwidth from this memory (bytes/s)
system.mem_ctrls.bw_write::total            183753900                       # Write bandwidth from this memory (bytes/s)
system.mem_ctrls.bw_total::.writebacks      183753900                       # Total bandwidth to/from this memory (bytes/s)
system.mem_ctrls.bw_total::.cpu.inst        470540728                       # Total bandwidth to/from this memory (bytes/s)
system.mem_ctrls.bw_total::.cpu.data        369923744                       # Total bandwidth to/from this memory (bytes/s)
system.mem_ctrls.bw_total::total           1024218372                       # Total bandwidth to/from this memory (bytes/s)
system.mem_ctrls.avgPriority_.writebacks::samples    121467.00                       # Average QoS priority value for accepted requests
system.mem_ctrls.avgPriority_.cpu.inst::samples     79353.00                       # Average QoS priority value for accepted requests
system.mem_ctrls.avgPriority_.cpu.data::samples     69773.00                       # Average QoS priority value for accepted requests
system.mem_ctrls.priorityMinLatency      0.000000018750                       # per QoS priority minimum request to response latency (s)
system.mem_ctrls.priorityMaxLatency      0.000164966250                       # per QoS priority maximum request to response latency (s)
system.mem_ctrls.numReadWriteTurnArounds         7474                       # Number of turnarounds from READ to WRITE
system.mem_ctrls.numWriteReadTurnArounds         7474                       # Number of turnarounds from WRITE to READ
system.mem_ctrls.numStayReadState              414155                       # Number of times bus staying in READ state
system.mem_ctrls.numStayWriteState             114064                       # Number of times bus staying in WRITE state
system.mem_ctrls.readReqs                      159678                       # Number of read requests accepted
system.mem_ctrls.writeReqs                     123562                       # Number of write requests accepted
system.mem_ctrls.readBursts                    159678                       # Number of DRAM read bursts, including those serviced by the write queue
system.mem_ctrls.writeBursts                   123562                       # Number of DRAM write bursts, including those merged in the write queue
system.mem_ctrls.servicedByWrQ                  10552                       # Number of DRAM read bursts serviced by the write queue
system.mem_ctrls.mergedWrBursts                  2095                       # Number of DRAM write bursts merged with an existing one
system.mem_ctrls.neitherReadNorWriteReqs            0                       # Number of requests that are neither read nor write
system.mem_ctrls.perBankRdBursts::0              8960                       # Per bank write bursts
system.mem_ctrls.perBankRdBursts::1              6663                       # Per bank write bursts
system.mem_ctrls.perBankRdBursts::2             10301                       # Per bank write bursts
system.mem_ctrls.perBankRdBursts::3              7252                       # Per bank write bursts
system.mem_ctrls.perBankRdBursts::4              8647                       # Per bank write bursts
system.mem_ctrls.perBankRdBursts::5             10061                       # Per bank write bursts
system.mem_ctrls.perBankRdBursts::6              8811                       # Per bank write bursts
system.mem_ctrls.perBankRdBursts::7              8819                       # Per bank write bursts
system.mem_ctrls.perBankRdBursts::8             11935                       # Per bank write bursts
system.mem_ctrls.perBankRdBursts::9              9399                       # Per bank write bursts
system.mem_ctrls.perBankRdBursts::10            10769                       # Per bank write bursts
system.mem_ctrls.perBankRdBursts::11            12186                       # Per bank write bursts
system.mem_ctrls.perBankRdBursts::12             8892                       # Per bank write bursts
system.mem_ctrls.perBankRdBursts::13            13859                       # Per bank write bursts
system.mem_ctrls.perBankRdBursts::14             5620                       # Per bank write bursts
system.mem_ctrls.perBankRdBursts::15             6952                       # Per bank write bursts
system.mem_ctrls.perBankWrBursts::0              7309                       # Per bank write bursts
system.mem_ctrls.perBankWrBursts::1              4481                       # Per bank write bursts
system.mem_ctrls.perBankWrBursts::2              8993                       # Per bank write bursts
system.mem_ctrls.perBankWrBursts::3              8064                       # Per bank write bursts
system.mem_ctrls.perBankWrBursts::4              7869                       # Per bank write bursts
system.mem_ctrls.perBankWrBursts::5              9808                       # Per bank write bursts
system.mem_ctrls.perBankWrBursts::6              7607                       # Per bank write bursts
system.mem_ctrls.perBankWrBursts::7              7004                       # Per bank write bursts
system.mem_ctrls.perBankWrBursts::8             10811                       # Per bank write bursts
system.mem_ctrls.perBankWrBursts::9              8555                       # Per bank write bursts
system.mem_ctrls.perBankWrBursts::10             8131                       # Per bank write bursts
system.mem_ctrls.perBankWrBursts::11             8147                       # Per bank write bursts
system.mem_ctrls.perBankWrBursts::12             5484                       # Per bank write bursts
system.mem_ctrls.perBankWrBursts::13            10166                       # Per bank write bursts
system.mem_ctrls.perBankWrBursts::14             3226                       # Per bank write bursts
system.mem_ctrls.perBankWrBursts::15             5794                       # Per bank write bursts
system.mem_ctrls.avgRdQLen                       1.09                       # Average read queue length when enqueuing
system.mem_ctrls.avgWrQLen                      25.74                       # Average write queue length when enqueuing
system.mem_ctrls.totQLat                   2041773750                       # Total ticks spent queuing
system.mem_ctrls.totBusLat                  745630000                       # Total ticks spent in databus transfers
system.mem_ctrls.totMemAccLat              4837886250                       # Total ticks spent from burst creation until serviced by the DRAM
system.mem_ctrls.avgQLat                     13691.60                       # Average queueing delay per DRAM burst
system.mem_ctrls.avgBusLat                    5000.00                       # Average bus latency per DRAM burst
system.mem_ctrls.avgMemAccLat                32441.60                       # Average memory access latency per DRAM burst
system.mem_ctrls.numRdRetry                         0                       # Number of times read queue was full causing retry
system.mem_ctrls.numWrRetry                         0                       # Number of times write queue was full causing retry
system.mem_ctrls.readRowHits                   105440                       # Number of row buffer hits during reads
system.mem_ctrls.writeRowHits                   81970                       # Number of row buffer hits during writes
system.mem_ctrls.readRowHitRate                 70.71                       # Row buffer hit rate for reads
system.mem_ctrls.writeRowHitRate                67.48                       # Row buffer hit rate for writes
system.mem_ctrls.readPktSize::0                     0                       # Read request sizes (log2)
system.mem_ctrls.readPktSize::1                     0                       # Read request sizes (log2)
system.mem_ctrls.readPktSize::2                     0                       # Read request sizes (log2)
system.mem_ctrls.readPktSize::3                     0                       # Read request sizes (log2)
system.mem_ctrls.readPktSize::4                     0                       # Read request sizes (log2)
system.mem_ctrls.readPktSize::5                     0                       # Read request sizes (log2)
system.mem_ctrls.readPktSize::6                159678                       # Read request sizes (log2)
system.mem_ctrls.writePktSize::0                    0                       # Write request sizes (log2)
system.mem_ctrls.writePktSize::1                    0                       # Write request sizes (log2)
system.mem_ctrls.writePktSize::2                    0                       # Write request sizes (log2)
system.mem_ctrls.writePktSize::3                    0                       # Write request sizes (log2)
system.mem_ctrls.writePktSize::4                    0                       # Write request sizes (log2)
system.mem_ctrls.writePktSize::5                    0                       # Write request sizes (log2)
system.mem_ctrls.writePktSize::6               123562                       # Write request sizes (log2)
system.mem_ctrls.rdQLenPdf::0                  136724                       # What read queue length does an incoming req see
system.mem_ctrls.rdQLenPdf::1                   12087                       # What read queue length does an incoming req see
system.mem_ctrls.rdQLenPdf::2                     315                       # What read queue length does an incoming req see
system.mem_ctrls.rdQLenPdf::3                       0                       # What read queue length does an incoming req see
system.mem_ctrls.rdQLenPdf::4                       0                       # What read queue length does an incoming req see
system.mem_ctrls.rdQLenPdf::5                       0                       # What read queue length does an incoming req see
system.mem_ctrls.rdQLenPdf::6                       0                       # What read queue length does an incoming req see
system.mem_ctrls.rdQLenPdf::7                       0                       # What read queue length does an incoming req see
system.mem_ctrls.rdQLenPdf::8                       0                       # What read queue length does an incoming req see
system.mem_ctrls.rdQLenPdf::9                       0                       # What read queue length does an incoming req see
system.mem_ctrls.rdQLenPdf::10                      0                       # What read queue length does an incoming req see
system.mem_ctrls.rdQLenPdf::11                      0                       # What read queue length does an incoming req see
system.mem_ctrls.rdQLenPdf::12                      0                       # What read queue length does an incoming req see
system.mem_ctrls.rdQLenPdf::13                      0                       # What read queue length does an incoming req see
system.mem_ctrls.rdQLenPdf::14                      0                       # What read queue length does an incoming req see
system.mem_ctrls.rdQLenPdf::15                      0                       # What read queue length does an incoming req see
system.mem_ctrls.rdQLenPdf::16                      0                       # What read queue length does an incoming req see
system.mem_ctrls.rdQLenPdf::17                      0                       # What read queue length does an incoming req see
system.mem_ctrls.rdQLenPdf::18                      0                       # What read queue length does an incoming req see
system.mem_ctrls.rdQLenPdf::19                      0                       # What read queue length does an incoming req see
system.mem_ctrls.rdQLenPdf::20                      0                       # What read queue length does an incoming req see
system.mem_ctrls.rdQLenPdf::21                      0                       # What read queue length does an incoming req see
system.mem_ctrls.rdQLenPdf::22                      0                       # What read queue length does an incoming req see
system.mem_ctrls.rdQLenPdf::23                      0                       # What read queue length does an incoming req see
system.mem_ctrls.rdQLenPdf::24                      0                       # What read queue length does an incoming req see
system.mem_ctrls.rdQLenPdf::25                      0                       # What read queue length does an incoming req see
system.mem_ctrls.rdQLenPdf::26                      0                       # What read queue length does an incoming req see
system.mem_ctrls.rdQLenPdf::27                      0                       # What read queue length does an incoming req see
system.mem_ctrls.rdQLenPdf::28                      0                       # What read queue length does an incoming req see
system.mem_ctrls.rdQLenPdf::29                      0                       # What read queue length does an incoming req see
system.mem_ctrls.rdQLenPdf::30                      0                       # What read queue length does an incoming req see
system.mem_ctrls.rdQLenPdf::31                      0                       # What read queue length does an incoming req see
system.mem_ctrls.wrQLenPdf::0                       1                       # What write queue length does an incoming req see
system.mem_ctrls.wrQLenPdf::1                       1                       # What write queue length does an incoming req see
system.mem_ctrls.wrQLenPdf::2                       1                       # What write queue length does an incoming req see
system.mem_ctrls.wrQLenPdf::3                       1                       # What write queue length does an incoming req see
system.mem_ctrls.wrQLenPdf::4                       1                       # What write queue length does an incoming req see
system.mem_ctrls.wrQLenPdf::5                       1                       # What write queue length does an incoming req see
system.mem_ctrls.wrQLenPdf::6                       1                       # What write queue length does an incoming req see
system.mem_ctrls.wrQLenPdf::7                       1                       # What write queue length does an incoming req see
system.mem_ctrls.wrQLenPdf::8                       1                       # What write queue length does an incoming req see
system.mem_ctrls.wrQLenPdf::9                       1                       # What write queue length does an incoming req see
system.mem_ctrls.wrQLenPdf::10                      1                       # What write queue length does an incoming req see
system.mem_ctrls.wrQLenPdf::11                      1                       # What write queue length does an incoming req see
system.mem_ctrls.wrQLenPdf::12                      1                       # What write queue length does an incoming req see
system.mem_ctrls.wrQLenPdf::13                      1                       # What write queue length does an incoming req see
system.mem_ctrls.wrQLenPdf::14                      1                       # What write queue length does an incoming req see
system.mem_ctrls.wrQLenPdf::15                    713                       # What write queue length does an incoming req see
system.mem_ctrls.wrQLenPdf::16                    805                       # What write queue length does an incoming req see
system.mem_ctrls.wrQLenPdf::17                   6870                       # What write queue length does an incoming req see
system.mem_ctrls.wrQLenPdf::18                   7483                       # What write queue length does an incoming req see
system.mem_ctrls.wrQLenPdf::19                   7587                       # What write queue length does an incoming req see
system.mem_ctrls.wrQLenPdf::20                   7557                       # What write queue length does an incoming req see
system.mem_ctrls.wrQLenPdf::21                   7549                       # What write queue length does an incoming req see
system.mem_ctrls.wrQLenPdf::22                   7639                       # What write queue length does an incoming req see
system.mem_ctrls.wrQLenPdf::23                   7560                       # What write queue length does an incoming req see
system.mem_ctrls.wrQLenPdf::24                   7551                       # What write queue length does an incoming req see
system.mem_ctrls.wrQLenPdf::25                   7543                       # What write queue length does an incoming req see
system.mem_ctrls.wrQLenPdf::26                   7575                       # What write queue length does an incoming req see
system.mem_ctrls.wrQLenPdf::27                   7526                       # What write queue length does an incoming req see
system.mem_ctrls.wrQLenPdf::28                   7510                       # What write queue length does an incoming req see
system.mem_ctrls.wrQLenPdf::29                   7509                       # What write queue length does an incoming req see
system.mem_ctrls.wrQLenPdf::30                   7480                       # What write queue length does an incoming req see
system.mem_ctrls.wrQLenPdf::31                   7478                       # What write queue length does an incoming req see
system.mem_ctrls.wrQLenPdf::32                   7474                       # What write queue length does an incoming req see
system.mem_ctrls.wrQLenPdf::33                     28                       # What write queue length does an incoming req see
system.mem_ctrls.wrQLenPdf::34                     10                       # What write queue length does an incoming req see
system.mem_ctrls.wrQLenPdf::35                      5                       # What write queue length does an incoming req see
system.mem_ctrls.wrQLenPdf::36                      0                       # What write queue length does an incoming req see
system.mem_ctrls.wrQLenPdf::37                      0                       # What write queue length does an incoming req see
system.mem_ctrls.wrQLenPdf::38                      0                       # What write queue length does an incoming req see
system.mem_ctrls.wrQLenPdf::39                      0                       # What write queue length does an incoming req see
system.mem_ctrls.wrQLenPdf::40                      0                       # What write queue length does an incoming req see
system.mem_ctrls.wrQLenPdf::41                      0                       # What write queue length does an incoming req see
system.mem_ctrls.wrQLenPdf::42                      0                       # What write queue length does an incoming req see
system.mem_ctrls.wrQLenPdf::43                      0                       # What write queue length does an incoming req see
system.mem_ctrls.wrQLenPdf::44                      0                       # What write queue length does an incoming req see
system.mem_ctrls.wrQLenPdf::45                      0                       # What write queue length does an incoming req see
system.mem_ctrls.wrQLenPdf::46                      0                       # What write queue length does an incoming req see
system.mem_ctrls.wrQLenPdf::47                      0                       # What write queue length does an incoming req see
system.mem_ctrls.wrQLenPdf::48                      0                       # What write queue length does an incoming req see
system.mem_ctrls.wrQLenPdf::49                      0                       # What write queue length does an incoming req see
system.mem_ctrls.wrQLenPdf::50                      0                       # What write queue length does an incoming req see
system.mem_ctrls.wrQLenPdf::51                      0                       # What write queue length does an incoming req see
system.mem_ctrls.wrQLenPdf::52                      0                       # What write queue length does an incoming req see
system.mem_ctrls.wrQLenPdf::53                      0                       # What write queue length does an incoming req see
system.mem_ctrls.wrQLenPdf::54                      0                       # What write queue length does an incoming req see
system.mem_ctrls.wrQLenPdf::55                      0                       # What write queue length does an incoming req see
system.mem_ctrls.wrQLenPdf::56                      0                       # What write queue length does an incoming req see
system.mem_ctrls.wrQLenPdf::57                      0                       # What write queue length does an incoming req see
system.mem_ctrls.wrQLenPdf::58                      0                       # What write queue length does an incoming req see
system.mem_ctrls.wrQLenPdf::59                      0                       # What write queue length does an incoming req see
system.mem_ctrls.wrQLenPdf::60                      0                       # What write queue length does an incoming req see
system.mem_ctrls.wrQLenPdf::61                      0                       # What write queue length does an incoming req see
system.mem_ctrls.wrQLenPdf::62                      0                       # What write queue length does an incoming req see
system.mem_ctrls.wrQLenPdf::63                      0                       # What write queue length does an incoming req see
system.mem_ctrls.bytesPerActivate::samples        83150                       # Bytes accessed per row activation
system.mem_ctrls.bytesPerActivate::mean    208.225905                       # Bytes accessed per row activation
system.mem_ctrls.bytesPerActivate::gmean   140.044592                       # Bytes accessed per row activation
system.mem_ctrls.bytesPerActivate::stdev   224.802691                       # Bytes accessed per row activation
system.mem_ctrls.bytesPerActivate::0-127        35315     42.47%     42.47% # Bytes accessed per row activation
system.mem_ctrls.bytesPerActivate::128-255        24706     29.71%     72.18% # Bytes accessed per row activation
system.mem_ctrls.bytesPerActivate::256-383        10166     12.23%     84.41% # Bytes accessed per row activation
system.mem_ctrls.bytesPerActivate::384-511         4647      5.59%     90.00% # Bytes accessed per row activation
system.mem_ctrls.bytesPerActivate::512-639         2481      2.98%     92.98% # Bytes accessed per row activation
system.mem_ctrls.bytesPerActivate::640-767         1444      1.74%     94.72% # Bytes accessed per row activation
system.mem_ctrls.bytesPerActivate::768-895          949      1.14%     95.86% # Bytes accessed per row activation
system.mem_ctrls.bytesPerActivate::896-1023          582      0.70%     96.56% # Bytes accessed per row activation
system.mem_ctrls.bytesPerActivate::1024-1151         2860      3.44%    100.00% # Bytes accessed per row activation
system.mem_ctrls.bytesPerActivate::total        83150                       # Bytes accessed per row activation
system.mem_ctrls.rdPerTurnAround::samples         7474                       # Reads before turning the bus around for writes
system.mem_ctrls.rdPerTurnAround::mean      19.952502                       # Reads before turning the bus around for writes
system.mem_ctrls.rdPerTurnAround::gmean     18.365414                       # Reads before turning the bus around for writes
system.mem_ctrls.rdPerTurnAround::stdev     12.654506                       # Reads before turning the bus around for writes
system.mem_ctrls.rdPerTurnAround::0-15           1335     17.86%     17.86% # Reads before turning the bus around for writes
system.mem_ctrls.rdPerTurnAround::16-31          5645     75.53%     93.39% # Reads before turning the bus around for writes
system.mem_ctrls.rdPerTurnAround::32-47           314      4.20%     97.59% # Reads before turning the bus around for writes
system.mem_ctrls.rdPerTurnAround::48-63            77      1.03%     98.62% # Reads before turning the bus around for writes
system.mem_ctrls.rdPerTurnAround::64-79            38      0.51%     99.13% # Reads before turning the bus around for writes
system.mem_ctrls.rdPerTurnAround::80-95            30      0.40%     99.53% # Reads before turning the bus around for writes
system.mem_ctrls.rdPerTurnAround::96-111           12      0.16%     99.69% # Reads before turning the bus around for writes
system.mem_ctrls.rdPerTurnAround::112-127            7      0.09%     99.79% # Reads before turning the bus around for writes
system.mem_ctrls.rdPerTurnAround::128-143            7      0.09%     99.88% # Reads before turning the bus around for writes
system.mem_ctrls.rdPerTurnAround::144-159            3      0.04%     99.92% # Reads before turning the bus around for writes
system.mem_ctrls.rdPerTurnAround::160-175            1      0.01%     99.93% # Reads before turning the bus around for writes
system.mem_ctrls.rdPerTurnAround::176-191            1      0.01%     99.95% # Reads before turning the bus around for writes
system.mem_ctrls.rdPerTurnAround::192-207            1      0.01%     99.96% # Reads before turning the bus around for writes
system.mem_ctrls.rdPerTurnAround::208-223            1      0.01%     99.97% # Reads before turning the bus around for writes
system.mem_ctrls.rdPerTurnAround::256-271            1      0.01%     99.99% # Reads before turning the bus around for writes
system.mem_ctrls.rdPerTurnAround::416-431            1      0.01%    100.00% # Reads before turning the bus around for writes
system.mem_ctrls.rdPerTurnAround::total          7474                       # Reads before turning the bus around for writes
system.mem_ctrls.wrPerTurnAround::samples         7474                       # Writes before turning the bus around for reads
system.mem_ctrls.wrPerTurnAround::mean      16.249532                       # Writes before turning the bus around for reads
system.mem_ctrls.wrPerTurnAround::gmean     16.233657                       # Writes before turning the bus around for reads
system.mem_ctrls.wrPerTurnAround::stdev      0.750719                       # Writes before turning the bus around for reads
system.mem_ctrls.wrPerTurnAround::16             6643     88.88%     88.88% # Writes before turning the bus around for reads
system.mem_ctrls.wrPerTurnAround::17               92      1.23%     90.11% # Writes before turning the bus around for reads
system.mem_ctrls.wrPerTurnAround::18              513      6.86%     96.98% # Writes before turning the bus around for reads
system.mem_ctrls.wrPerTurnAround::19              164      2.19%     99.17% # Writes before turning the bus around for reads
system.mem_ctrls.wrPerTurnAround::20               56      0.75%     99.92% # Writes before turning the bus around for reads
system.mem_ctrls.wrPerTurnAround::21                5      0.07%     99.99% # Writes before turning the bus around for reads
system.mem_ctrls.wrPerTurnAround::22                1      0.01%    100.00% # Writes before turning the bus around for reads
system.mem_ctrls.wrPerTurnAround::total          7474                       # Writes before turning the bus around for reads
system.mem_ctrls.bytesReadDRAM                9544064                       # Total number of bytes read from DRAM
system.mem_ctrls.bytesReadWrQ                  675328                       # Total number of bytes read from write queue
system.mem_ctrls.bytesWritten                 7772736                       # Total number of bytes written to DRAM
system.mem_ctrls.bytesReadSys                10219392                       # Total read bytes from the system interface side
system.mem_ctrls.bytesWrittenSys              7907968                       # Total written bytes from the system interface side
system.mem_ctrls.avgRdBW                       784.92                       # Average DRAM read bandwidth in MiByte/s
system.mem_ctrls.avgWrBW                       639.25                       # Average achieved write bandwidth in MiByte/s
system.mem_ctrls.avgRdBWSys                    840.46                       # Average system read bandwidth in MiByte/s
system.mem_ctrls.avgWrBWSys                    650.37                       # Average system write bandwidth in MiByte/s
system.mem_ctrls.peakBW                      12800.00                       # Theoretical peak bandwidth in MiByte/s
system.mem_ctrls.busUtil                        11.13                       # Data bus utilization in percentage
system.mem_ctrls.busUtilRead                     6.13                       # Data bus utilization in percentage for reads
system.mem_ctrls.busUtilWrite                    4.99                       # Data bus utilization in percentage for writes
system.mem_ctrls.totGap                   12159214500                       # Total gap between requests
system.mem_ctrls.avgGap                      42929.02                       # Average gap between requests
system.mem_ctrls.masterReadBytes::.cpu.inst      5078592                       # Per-master bytes read from memory
system.mem_ctrls.masterReadBytes::.cpu.data      4465472                       # Per-master bytes read from memory
system.mem_ctrls.masterWriteBytes::.writebacks      7772736                       # Per-master bytes write to memory
[...]
system.cpu.icache.ReadReq_mshr_miss_latency::.cpu.inst  36763815000                       # number of ReadReq MSHR miss cycles
system.cpu.icache.ReadReq_mshr_miss_latency::total  36763815000                       # number of ReadReq MSHR miss cycles
system.cpu.icache.ReadReq_mshr_miss_rate::.cpu.inst     0.004256                       # mshr miss rate for ReadReq accesses
system.cpu.icache.ReadReq_mshr_miss_rate::total     0.004256                       # mshr miss rate for ReadReq accesses
system.cpu.icache.ReadReq_avg_mshr_miss_latency::.cpu.inst 60143.332733                       # average ReadReq mshr miss latency
system.cpu.icache.ReadReq_avg_mshr_miss_latency::total 60143.332733                       # average ReadReq mshr miss latency
system.cpu.icache.tags.pwrStateResidencyTicks::UNDEFINED 419709256500                       # Cumulative time (in ticks) in various power states
system.cpu.icache.tags.tagsinuse                  512                       # Cycle average of tags in use
system.cpu.icache.tags.total_refs           143862279                       # Total number of references to valid blocks.
system.cpu.icache.tags.sampled_refs            611783                       # Sample count of references to valid blocks.
system.cpu.icache.tags.avg_refs            235.152463                       # Average number of references to valid blocks.
system.cpu.icache.tags.warmup_cycle                 0                       # Cycle when the warmup percentage was hit.
system.cpu.icache.tags.occ_blocks::.cpu.inst          512                       # Average occupied blocks per requestor
system.cpu.icache.tags.occ_percent::.cpu.inst            1                       # Average percentage of cache occupancy
system.cpu.icache.tags.occ_percent::total            1                       # Average percentage of cache occupancy
system.cpu.icache.tags.occ_task_id_blocks::1024          512                       # Occupied blocks per task id
system.cpu.icache.tags.age_task_id_blocks_1024::1           50                       # Occupied blocks per task id
system.cpu.icache.tags.age_task_id_blocks_1024::2          337                       # Occupied blocks per task id
system.cpu.icache.tags.age_task_id_blocks_1024::3           89                       # Occupied blocks per task id
system.cpu.icache.tags.age_task_id_blocks_1024::4           36                       # Occupied blocks per task id
system.cpu.icache.tags.occ_task_id_percent::1024            1                       # Percentage of cache occupancy per task id
system.cpu.icache.tags.tag_accesses         287870607                       # Number of tag accesses
system.cpu.icache.tags.data_accesses        287870607                       # Number of data accesses
system.cpu.dcache.pwrStateResidencyTicks::UNDEFINED 419709256500                       # Cumulative time (in ticks) in various power states
system.cpu.dcache.demand_hits::.cpu.data    122327052                       # number of demand (read+write) hits
system.cpu.dcache.demand_hits::total        122327052                       # number of demand (read+write) hits
system.cpu.dcache.overall_hits::.cpu.data    122327052                       # number of overall hits
system.cpu.dcache.overall_hits::total       122327052                       # number of overall hits
system.cpu.dcache.demand_misses::.cpu.data      1802200                       # number of demand (read+write) misses
system.cpu.dcache.demand_misses::total        1802200                       # number of demand (read+write) misses
system.cpu.dcache.overall_misses::.cpu.data      1802200                       # number of overall misses
system.cpu.dcache.overall_misses::total       1802200                       # number of overall misses
system.cpu.dcache.demand_miss_latency::.cpu.data 113005182500                       # number of demand (read+write) miss cycles
system.cpu.dcache.demand_miss_latency::total 113005182500                       # number of demand (read+write) miss cycles
system.cpu.dcache.overall_miss_latency::.cpu.data 113005182500                       # number of overall miss cycles
system.cpu.dcache.overall_miss_latency::total 113005182500                       # number of overall miss cycles
system.cpu.dcache.demand_accesses::.cpu.data    124129252                       # number of demand (read+write) accesses
system.cpu.dcache.demand_accesses::total    124129252                       # number of demand (read+write) accesses
system.cpu.dcache.overall_accesses::.cpu.data    124129252                       # number of overall (read+write) accesses
system.cpu.dcache.overall_accesses::total    124129252                       # number of overall (read+write) accesses
system.cpu.dcache.demand_miss_rate::.cpu.data     0.014519                       # miss rate for demand accesses
system.cpu.dcache.demand_miss_rate::total     0.014519                       # miss rate for demand accesses
system.cpu.dcache.overall_miss_rate::.cpu.data     0.014519                       # miss rate for overall accesses
system.cpu.dcache.overall_miss_rate::total     0.014519                       # miss rate for overall accesses
system.cpu.dcache.demand_avg_miss_latency::.cpu.data 62704.018699                       # average overall miss latency
system.cpu.dcache.demand_avg_miss_latency::total 62704.018699                       # average overall miss latency
system.cpu.dcache.overall_avg_miss_latency::.cpu.data 62704.018699                       # average overall miss latency
system.cpu.dcache.overall_avg_miss_latency::total 62704.018699                       # average overall miss latency
system.cpu.dcache.blocked_cycles::no_mshrs            0                       # number of cycles access was blocked
system.cpu.dcache.blocked_cycles::no_targets            0                       # number of cycles access was blocked
system.cpu.dcache.blocked::no_mshrs                 0                       # number of cycles access was blocked
system.cpu.dcache.blocked::no_targets               0                       # number of cycles access was blocked
system.cpu.dcache.avg_blocked_cycles::no_mshrs          nan                       # average number of cycles each access was blocked
system.cpu.dcache.avg_blocked_cycles::no_targets          nan                       # average number of cycles each access was blocked
system.cpu.dcache.writebacks::.writebacks       797095                       # number of writebacks
system.cpu.dcache.writebacks::total            797095                       # number of writebacks
system.cpu.dcache.demand_mshr_hits::.cpu.data       519380                       # number of demand (read+write) MSHR hits
system.cpu.dcache.demand_mshr_hits::total       519380                       # number of demand (read+write) MSHR hits
system.cpu.dcache.overall_mshr_hits::.cpu.data       519380                       # number of overall MSHR hits
system.cpu.dcache.overall_mshr_hits::total       519380                       # number of overall MSHR hits
system.cpu.dcache.demand_mshr_misses::.cpu.data      1282820                       # number of demand (read+write) MSHR misses
system.cpu.dcache.demand_mshr_misses::total      1282820                       # number of demand (read+write) MSHR misses
system.cpu.dcache.overall_mshr_misses::.cpu.data      1282820                       # number of overall MSHR misses
system.cpu.dcache.overall_mshr_misses::total      1282820                       # number of overall MSHR misses
system.cpu.dcache.overall_mshr_uncacheable_misses::.cpu.data          430                       # number of overall MSHR uncacheable misses
system.cpu.dcache.overall_mshr_uncacheable_misses::total          430                       # number of overall MSHR uncacheable misses
system.cpu.dcache.demand_mshr_miss_latency::.cpu.data  79588277000                       # number of demand (read+write) MSHR miss cycles
system.cpu.dcache.demand_mshr_miss_latency::total  79588277000                       # number of demand (read+write) MSHR miss cycles
system.cpu.dcache.overall_mshr_miss_latency::.cpu.data  79588277000                       # number of overall MSHR miss cycles
system.cpu.dcache.overall_mshr_miss_latency::total  79588277000                       # number of overall MSHR miss cycles
system.cpu.dcache.demand_mshr_miss_rate::.cpu.data     0.010335                       # mshr miss rate for demand accesses
system.cpu.dcache.demand_mshr_miss_rate::total     0.010335                       # mshr miss rate for demand accesses
system.cpu.dcache.overall_mshr_miss_rate::.cpu.data     0.010335                       # mshr miss rate for overall accesses
system.cpu.dcache.overall_mshr_miss_rate::total     0.010335                       # mshr miss rate for overall accesses
system.cpu.dcache.demand_avg_mshr_miss_latency::.cpu.data 62041.655883                       # average overall mshr miss latency
system.cpu.dcache.demand_avg_mshr_miss_latency::total 62041.655883                       # average overall mshr miss latency
system.cpu.dcache.overall_avg_mshr_miss_latency::.cpu.data 62041.655883                       # average overall mshr miss latency
system.cpu.dcache.overall_avg_mshr_miss_latency::total 62041.655883                       # average overall mshr miss latency
system.cpu.dcache.replacements                1287833                       # number of replacements
system.cpu.dcache.ReadReq_hits::.cpu.data     95581256                       # number of ReadReq hits
system.cpu.dcache.ReadReq_hits::total        95581256                       # number of ReadReq hits
system.cpu.dcache.ReadReq_misses::.cpu.data       946451                       # number of ReadReq misses
system.cpu.dcache.ReadReq_misses::total        946451                       # number of ReadReq misses
system.cpu.dcache.ReadReq_miss_latency::.cpu.data  61151559500                       # number of ReadReq miss cycles
system.cpu.dcache.ReadReq_miss_latency::total  61151559500                       # number of ReadReq miss cycles
system.cpu.dcache.ReadReq_accesses::.cpu.data     96527707                       # number of ReadReq accesses(hits+misses)
system.cpu.dcache.ReadReq_accesses::total     96527707                       # number of ReadReq accesses(hits+misses)
system.cpu.dcache.ReadReq_miss_rate::.cpu.data     0.009805                       # miss rate for ReadReq accesses
system.cpu.dcache.ReadReq_miss_rate::total     0.009805                       # miss rate for ReadReq accesses
system.cpu.dcache.ReadReq_avg_miss_latency::.cpu.data 64611.437359                       # average ReadReq miss latency
system.cpu.dcache.ReadReq_avg_miss_latency::total 64611.437359                       # average ReadReq miss latency
system.cpu.dcache.ReadReq_mshr_hits::.cpu.data        99417                       # number of ReadReq MSHR hits
system.cpu.dcache.ReadReq_mshr_hits::total        99417                       # number of ReadReq MSHR hits
system.cpu.dcache.ReadReq_mshr_misses::.cpu.data       847034                       # number of ReadReq MSHR misses
system.cpu.dcache.ReadReq_mshr_misses::total       847034                       # number of ReadReq MSHR misses
system.cpu.dcache.ReadReq_mshr_miss_latency::.cpu.data  54133432000                       # number of ReadReq MSHR miss cycles
system.cpu.dcache.ReadReq_mshr_miss_latency::total  54133432000                       # number of ReadReq MSHR miss cycles
system.cpu.dcache.ReadReq_mshr_miss_rate::.cpu.data     0.008775                       # mshr miss rate for ReadReq accesses
system.cpu.dcache.ReadReq_mshr_miss_rate::total     0.008775                       # mshr miss rate for ReadReq accesses
system.cpu.dcache.ReadReq_avg_mshr_miss_latency::.cpu.data 63909.396789                       # average ReadReq mshr miss latency
system.cpu.dcache.ReadReq_avg_mshr_miss_latency::total 63909.396789                       # average ReadReq mshr miss latency
system.cpu.dcache.WriteReq_hits::.cpu.data     26745796                       # number of WriteReq hits
system.cpu.dcache.WriteReq_hits::total       26745796                       # number of WriteReq hits
system.cpu.dcache.WriteReq_misses::.cpu.data       855749                       # number of WriteReq misses
system.cpu.dcache.WriteReq_misses::total       855749                       # number of WriteReq misses
system.cpu.dcache.WriteReq_miss_latency::.cpu.data  51853623000                       # number of WriteReq miss cycles
system.cpu.dcache.WriteReq_miss_latency::total  51853623000                       # number of WriteReq miss cycles
system.cpu.dcache.WriteReq_accesses::.cpu.data     27601545                       # number of WriteReq accesses(hits+misses)
system.cpu.dcache.WriteReq_accesses::total     27601545                       # number of WriteReq accesses(hits+misses)
system.cpu.dcache.WriteReq_miss_rate::.cpu.data     0.031004                       # miss rate for WriteReq accesses
system.cpu.dcache.WriteReq_miss_rate::total     0.031004                       # miss rate for WriteReq accesses
system.cpu.dcache.WriteReq_avg_miss_latency::.cpu.data 60594.430142                       # average WriteReq miss latency
system.cpu.dcache.WriteReq_avg_miss_latency::total 60594.430142                       # average WriteReq miss latency
system.cpu.dcache.WriteReq_mshr_hits::.cpu.data       419963                       # number of WriteReq MSHR hits
system.cpu.dcache.WriteReq_mshr_hits::total       419963                       # number of WriteReq MSHR hits
system.cpu.dcache.WriteReq_mshr_misses::.cpu.data       435786                       # number of WriteReq MSHR misses
system.cpu.dcache.WriteReq_mshr_misses::total       435786                       # number of WriteReq MSHR misses
system.cpu.dcache.WriteReq_mshr_uncacheable::.cpu.data          430                       # number of WriteReq MSHR uncacheable
system.cpu.dcache.WriteReq_mshr_uncacheable::total          430                       # number of WriteReq MSHR uncacheable
system.cpu.dcache.WriteReq_mshr_miss_latency::.cpu.data  25454845000                       # number of WriteReq MSHR miss cycles
system.cpu.dcache.WriteReq_mshr_miss_latency::total  25454845000                       # number of WriteReq MSHR miss cycles
system.cpu.dcache.WriteReq_mshr_miss_rate::.cpu.data     0.015788                       # mshr miss rate for WriteReq accesses
system.cpu.dcache.WriteReq_mshr_miss_rate::total     0.015788                       # mshr miss rate for WriteReq accesses
system.cpu.dcache.WriteReq_avg_mshr_miss_latency::.cpu.data 58411.341805                       # average WriteReq mshr miss latency
system.cpu.dcache.WriteReq_avg_mshr_miss_latency::total 58411.341805                       # average WriteReq mshr miss latency
system.cpu.dcache.LoadLockedReq_hits::.cpu.data        78407                       # number of LoadLockedReq hits
system.cpu.dcache.LoadLockedReq_hits::total        78407                       # number of LoadLockedReq hits
system.cpu.dcache.LoadLockedReq_misses::.cpu.data         5014                       # number of LoadLockedReq misses
system.cpu.dcache.LoadLockedReq_misses::total         5014                       # number of LoadLockedReq misses
system.cpu.dcache.LoadLockedReq_miss_latency::.cpu.data    358060500                       # number of LoadLockedReq miss cycles
system.cpu.dcache.LoadLockedReq_miss_latency::total    358060500                       # number of LoadLockedReq miss cycles
system.cpu.dcache.LoadLockedReq_accesses::.cpu.data        83421                       # number of LoadLockedReq accesses(hits+misses)
system.cpu.dcache.LoadLockedReq_accesses::total        83421                       # number of LoadLockedReq accesses(hits+misses)
system.cpu.dcache.LoadLockedReq_miss_rate::.cpu.data     0.060105                       # miss rate for LoadLockedReq accesses
system.cpu.dcache.LoadLockedReq_miss_rate::total     0.060105                       # miss rate for LoadLockedReq accesses
system.cpu.dcache.LoadLockedReq_avg_miss_latency::.cpu.data 71412.145991                       # average LoadLockedReq miss latency
system.cpu.dcache.LoadLockedReq_avg_miss_latency::total 71412.145991                       # average LoadLockedReq miss latency
system.cpu.dcache.LoadLockedReq_mshr_misses::.cpu.data         5014                       # number of LoadLockedReq MSHR misses
system.cpu.dcache.LoadLockedReq_mshr_misses::total         5014                       # number of LoadLockedReq MSHR misses
system.cpu.dcache.LoadLockedReq_mshr_miss_latency::.cpu.data    353046500                       # number of LoadLockedReq MSHR miss cycles
system.cpu.dcache.LoadLockedReq_mshr_miss_latency::total    353046500                       # number of LoadLockedReq MSHR miss cycles
system.cpu.dcache.LoadLockedReq_mshr_miss_rate::.cpu.data     0.060105                       # mshr miss rate for LoadLockedReq accesses
system.cpu.dcache.LoadLockedReq_mshr_miss_rate::total     0.060105                       # mshr miss rate for LoadLockedReq accesses
system.cpu.dcache.LoadLockedReq_avg_mshr_miss_latency::.cpu.data 70412.145991                       # average LoadLockedReq mshr miss latency
system.cpu.dcache.LoadLockedReq_avg_mshr_miss_latency::total 70412.145991                       # average LoadLockedReq mshr miss latency
system.cpu.dcache.StoreCondReq_hits::.cpu.data        83239                       # number of StoreCondReq hits
system.cpu.dcache.StoreCondReq_hits::total        83239                       # number of StoreCondReq hits
system.cpu.dcache.StoreCondReq_accesses::.cpu.data        83239                       # number of StoreCondReq accesses(hits+misses)
system.cpu.dcache.StoreCondReq_accesses::total        83239                       # number of StoreCondReq accesses(hits+misses)
system.cpu.dcache.tags.pwrStateResidencyTicks::UNDEFINED 419709256500                       # Cumulative time (in ticks) in various power states
system.cpu.dcache.tags.tagsinuse                 1024                       # Cycle average of tags in use
system.cpu.dcache.tags.total_refs           124198722                       # Total number of references to valid blocks.
system.cpu.dcache.tags.sampled_refs           1288857                       # Sample count of references to valid blocks.
system.cpu.dcache.tags.avg_refs             96.363462                       # Average number of references to valid blocks.
system.cpu.dcache.tags.warmup_cycle                 0                       # Cycle when the warmup percentage was hit.
system.cpu.dcache.tags.occ_blocks::.cpu.data         1024                       # Average occupied blocks per requestor
system.cpu.dcache.tags.occ_percent::.cpu.data            1                       # Average percentage of cache occupancy
system.cpu.dcache.tags.occ_percent::total            1                       # Average percentage of cache occupancy
system.cpu.dcache.tags.occ_task_id_blocks::1024         1024                       # Occupied blocks per task id
system.cpu.dcache.tags.age_task_id_blocks_1024::0           11                       # Occupied blocks per task id
system.cpu.dcache.tags.age_task_id_blocks_1024::1          214                       # Occupied blocks per task id
system.cpu.dcache.tags.age_task_id_blocks_1024::2          772                       # Occupied blocks per task id
system.cpu.dcache.tags.age_task_id_blocks_1024::3           27                       # Occupied blocks per task id
system.cpu.dcache.tags.occ_task_id_percent::1024            1                       # Percentage of cache occupancy per task id
system.cpu.dcache.tags.tag_accesses         249879657                       # Number of tag accesses
system.cpu.dcache.tags.data_accesses        249879657                       # Number of data accesses

---------- End Simulation Statistics   ----------
