
---------- Begin Simulation Statistics ----------
final_tick                               2542010551500                       # Number of ticks from beginning of simulation (restored from checkpoints and never reset)
host_inst_rate                                 224149                       # Simulator instruction rate (inst/s)
host_mem_usage                                 740736                       # Number of bytes of host memory used
host_op_rate                                   224148                       # Simulator op (including micro ops) rate (op/s)
host_seconds                                    18.74                       # Real time elapsed on the host
host_tick_rate                              640430171                       # Simulator tick rate (ticks/s)
sim_freq                                 1000000000000                       # Frequency of simulated ticks
sim_insts                                     4200189                       # Number of instructions simulated
sim_ops                                       4200189                       # Number of ops (including micro ops) simulated
sim_seconds                                  0.012001                       # Number of seconds simulated
sim_ticks                                 12000706500                       # Number of ticks simulated
system.cpu.branchPred.BTBCorrect                    0                       # Number of correct BTB predictions (this stat may not work properly.
system.cpu.branchPred.BTBHitPct             46.777253                       # BTB Hit Percentage
system.cpu.branchPred.BTBHits                  418060                       # Number of BTB hits
system.cpu.branchPred.BTBLookups               893725                       # Number of BTB lookups
system.cpu.branchPred.RASInCorrect               2363                       # Number of incorrect RAS predictions.
system.cpu.branchPred.condIncorrect             93746                       # Number of conditional branches incorrect
system.cpu.branchPred.condPredicted            817579                       # Number of conditional branches predicted
system.cpu.branchPred.indirectHits              52919                       # Number of indirect target hits.
system.cpu.branchPred.indirectLookups          279726                       # Number of indirect predictor lookups.
system.cpu.branchPred.indirectMisses           226807                       # Number of indirect misses.
system.cpu.branchPred.lookups                  995766                       # Number of BP lookups
system.cpu.branchPred.usedRAS                   66101                       # Number of times the RAS was used to get a target.
system.cpu.branchPredindirectMispredicted        26982                       # Number of mispredicted indirect branches.
system.cpu.committedInsts                     4200189                       # Number of instructions committed
system.cpu.committedOps                       4200189                       # Number of ops (including micro ops) committed
system.cpu.cpi                               5.711163                       # CPI: cycles per instruction
system.cpu.discardedOps                        200851                       # Number of ops (including micro ops) which were discarded before commit
system.cpu.dtb.data_accesses                   610046                       # DTB accesses
system.cpu.dtb.data_acv                           130                       # DTB access violations
system.cpu.dtb.data_hits                      1457833                       # DTB hits
system.cpu.dtb.data_misses                       7346                       # DTB misses
system.cpu.dtb.fetch_accesses                       0                       # ITB accesses
system.cpu.dtb.fetch_acv                            0                       # ITB acv
system.cpu.dtb.fetch_hits                           0                       # ITB hits
system.cpu.dtb.fetch_misses                         0                       # ITB misses
system.cpu.dtb.read_accesses                   408037                       # DTB read accesses
system.cpu.dtb.read_acv                            43                       # DTB read access violations
system.cpu.dtb.read_hits                       854511                       # DTB read hits
system.cpu.dtb.read_misses                       6547                       # DTB read misses
system.cpu.dtb.write_accesses                  202009                       # DTB write accesses
system.cpu.dtb.write_acv                           87                       # DTB write access violations
system.cpu.dtb.write_hits                      603322                       # DTB write hits
system.cpu.dtb.write_misses                       799                       # DTB write misses
system.cpu.fetch2.amo_instructions                  0                       # Number of memory atomic instructions successfully decoded
system.cpu.fetch2.fp_instructions               18029                       # Number of floating point instructions successfully decoded
system.cpu.fetch2.int_instructions            3435914                       # Number of integer instructions successfully decoded
system.cpu.fetch2.load_instructions           1055706                       # Number of memory load instructions successfully decoded
system.cpu.fetch2.store_instructions           665734                       # Number of memory store instructions successfully decoded
system.cpu.fetch2.vec_instructions                  0                       # Number of SIMD instructions successfully decoded
system.cpu.idleCycles                        16801020                       # Total number of cycles that the object has spent stopped
system.cpu.ipc                               0.175096                       # IPC: instructions per cycle
system.cpu.itb.data_accesses                        0                       # DTB accesses
system.cpu.itb.data_acv                             0                       # DTB access violations
system.cpu.itb.data_hits                            0                       # DTB hits
system.cpu.itb.data_misses                          0                       # DTB misses
system.cpu.itb.fetch_accesses                 1027712                       # ITB accesses
system.cpu.itb.fetch_acv                          788                       # ITB acv
system.cpu.itb.fetch_hits                     1020998                       # ITB hits
system.cpu.itb.fetch_misses                      6714                       # ITB misses
system.cpu.itb.read_accesses                        0                       # DTB read accesses
system.cpu.itb.read_acv                             0                       # DTB read access violations
system.cpu.itb.read_hits                            0                       # DTB read hits
system.cpu.itb.read_misses                          0                       # DTB read misses
system.cpu.itb.write_accesses                       0                       # DTB write accesses
system.cpu.itb.write_acv                            0                       # DTB write access violations
system.cpu.itb.write_hits                           0                       # DTB write hits
system.cpu.itb.write_misses                         0                       # DTB write misses
system.cpu.kern.callpal::swpctx                   574      9.43%      9.43% # number of callpals executed
system.cpu.kern.callpal::tbi                       25      0.41%      9.84% # number of callpals executed
system.cpu.kern.callpal::swpipl                  4222     69.35%     79.19% # number of callpals executed
system.cpu.kern.callpal::rdps                      50      0.82%     80.01% # number of callpals executed
system.cpu.kern.callpal::wrusp                      4      0.07%     80.08% # number of callpals executed
system.cpu.kern.callpal::rdusp                      3      0.05%     80.12% # number of callpals executed
system.cpu.kern.callpal::rti                      897     14.73%     94.86% # number of callpals executed
system.cpu.kern.callpal::callsys                  235      3.86%     98.72% # number of callpals executed
system.cpu.kern.callpal::imb                       78      1.28%    100.00% # number of callpals executed
system.cpu.kern.callpal::total                   6088                       # number of callpals executed
system.cpu.kern.inst.arm                            0                       # number of arm instructions executed
system.cpu.kern.inst.hwrei                      14432                       # number of hwrei instructions executed
system.cpu.kern.inst.quiesce                        9                       # number of quiesce instructions executed
system.cpu.kern.ipl_count::0                     2432     47.34%     47.34% # number of times we switched to this ipl
system.cpu.kern.ipl_count::21                       5      0.10%     47.44% # number of times we switched to this ipl
system.cpu.kern.ipl_count::22                      13      0.25%     47.69% # number of times we switched to this ipl
system.cpu.kern.ipl_count::31                    2687     52.31%    100.00% # number of times we switched to this ipl
system.cpu.kern.ipl_count::total                 5137                       # number of times we switched to this ipl
system.cpu.kern.ipl_good::0                      2419     49.81%     49.81% # number of times we switched to this ipl from a different ipl
system.cpu.kern.ipl_good::21                        5      0.10%     49.92% # number of times we switched to this ipl from a different ipl
system.cpu.kern.ipl_good::22                       13      0.27%     50.19% # number of times we switched to this ipl from a different ipl
system.cpu.kern.ipl_good::31                     2419     49.81%    100.00% # number of times we switched to this ipl from a different ipl
system.cpu.kern.ipl_good::total                  4856                       # number of times we switched to this ipl from a different ipl
system.cpu.kern.ipl_ticks::0              11074514000     92.23%     92.23% # number of cycles we spent at this ipl
system.cpu.kern.ipl_ticks::21                 8810000      0.07%     92.30% # number of cycles we spent at this ipl
system.cpu.kern.ipl_ticks::22                18701500      0.16%     92.46% # number of cycles we spent at this ipl
system.cpu.kern.ipl_ticks::31               905700500      7.54%    100.00% # number of cycles we spent at this ipl
system.cpu.kern.ipl_ticks::total          12007726000                       # number of cycles we spent at this ipl
system.cpu.kern.ipl_used::0                  0.994655                       # fraction of swpipl calls that actually changed the ipl
system.cpu.kern.ipl_used::21                        1                       # fraction of swpipl calls that actually changed the ipl
system.cpu.kern.ipl_used::22                        1                       # fraction of swpipl calls that actually changed the ipl
system.cpu.kern.ipl_used::31                 0.900261                       # fraction of swpipl calls that actually changed the ipl
system.cpu.kern.ipl_used::total              0.945299                       # fraction of swpipl calls that actually changed the ipl
system.cpu.kern.mode_good::kernel                 868                      
system.cpu.kern.mode_good::user                   868                      
system.cpu.kern.mode_good::idle                     0                      
system.cpu.kern.mode_switch::kernel              1471                       # number of protection mode switches
system.cpu.kern.mode_switch::user                 868                       # number of protection mode switches
system.cpu.kern.mode_switch::idle                   0                       # number of protection mode switches
system.cpu.kern.mode_switch_good::kernel     0.590075                       # fraction of useful protection mode switches
system.cpu.kern.mode_switch_good::user              1                       # fraction of useful protection mode switches
system.cpu.kern.mode_switch_good::idle            nan                       # fraction of useful protection mode switches
system.cpu.kern.mode_switch_good::total      0.742198                       # fraction of useful protection mode switches
system.cpu.kern.mode_ticks::kernel         8081284000     67.30%     67.30% # number of ticks spent at the given mode
system.cpu.kern.mode_ticks::user           3926391000     32.70%    100.00% # number of ticks spent at the given mode
system.cpu.kern.mode_ticks::idle                    0      0.00%    100.00% # number of ticks spent at the given mode
system.cpu.kern.swap_context                      574                       # number of times the context was actually changed
system.cpu.numCycles                         23987966                       # number of cpu cycles simulated
system.cpu.numFetchSuspends                         9                       # Number of times Execute suspended instruction fetching
system.cpu.numWorkItemsCompleted                    0                       # number of work items this cpu completed
system.cpu.numWorkItemsStarted                      0                       # number of work items this cpu started
system.cpu.op_class_0::No_OpClass               85460      2.03%      2.03% # Class of committed instruction
system.cpu.op_class_0::IntAlu                 2543911     60.57%     62.60% # Class of committed instruction
system.cpu.op_class_0::IntMult                   3684      0.09%     62.69% # Class of committed instruction
system.cpu.op_class_0::IntDiv                       0      0.00%     62.69% # Class of committed instruction
system.cpu.op_class_0::FloatAdd                  8286      0.20%     62.89% # Class of committed instruction
system.cpu.op_class_0::FloatCmp                     0      0.00%     62.89% # Class of committed instruction
system.cpu.op_class_0::FloatCvt                     0      0.00%     62.89% # Class of committed instruction
system.cpu.op_class_0::FloatMult                    0      0.00%     62.89% # Class of committed instruction
system.cpu.op_class_0::FloatMultAcc                 0      0.00%     62.89% # Class of committed instruction
system.cpu.op_class_0::FloatDiv                  1593      0.04%     62.92% # Class of committed instruction
system.cpu.op_class_0::FloatMisc                    0      0.00%     62.92% # Class of committed instruction
system.cpu.op_class_0::FloatSqrt                    0      0.00%     62.92% # Class of committed instruction
system.cpu.op_class_0::SimdAdd                      0      0.00%     62.92% # Class of committed instruction
system.cpu.op_class_0::SimdAddAcc                   0      0.00%     62.92% # Class of committed instruction
system.cpu.op_class_0::SimdAlu                      0      0.00%     62.92% # Class of committed instruction
system.cpu.op_class_0::SimdCmp                      0      0.00%     62.92% # Class of committed instruction
system.cpu.op_class_0::SimdCvt                      0      0.00%     62.92% # Class of committed instruction
system.cpu.op_class_0::SimdMisc                     0      0.00%     62.92% # Class of committed instruction
system.cpu.op_class_0::SimdMult                     0      0.00%     62.92% # Class of committed instruction
system.cpu.op_class_0::SimdMultAcc                  0      0.00%     62.92% # Class of committed instruction
system.cpu.op_class_0::SimdShift                    0      0.00%     62.92% # Class of committed instruction
system.cpu.op_class_0::SimdShiftAcc                 0      0.00%     62.92% # Class of committed instruction
system.cpu.op_class_0::SimdDiv                      0      0.00%     62.92% # Class of committed instruction
system.cpu.op_class_0::SimdSqrt                     0      0.00%     62.92% # Class of committed instruction
system.cpu.op_class_0::SimdFloatAdd                 0      0.00%     62.92% # Class of committed instruction
system.cpu.op_class_0::SimdFloatAlu                 0      0.00%     62.92% # Class of committed instruction
system.cpu.op_class_0::SimdFloatCmp                 0      0.00%     62.92% # Class of committed instruction
system.cpu.op_class_0::SimdFloatCvt                 0      0.00%     62.92% # Class of committed instruction
system.cpu.op_class_0::SimdFloatDiv                 0      0.00%     62.92% # Class of committed instruction
system.cpu.op_class_0::SimdFloatMisc                0      0.00%     62.92% # Class of committed instruction
system.cpu.op_class_0::SimdFloatMult                0      0.00%     62.92% # Class of committed instruction
system.cpu.op_class_0::SimdFloatMultAcc             0      0.00%     62.92% # Class of committed instruction
system.cpu.op_class_0::SimdFloatSqrt                0      0.00%     62.92% # Class of committed instruction
system.cpu.op_class_0::SimdReduceAdd                0      0.00%     62.92% # Class of committed instruction
system.cpu.op_class_0::SimdReduceAlu                0      0.00%     62.92% # Class of committed instruction
system.cpu.op_class_0::SimdReduceCmp                0      0.00%     62.92% # Class of committed instruction
system.cpu.op_class_0::SimdFloatReduceAdd            0      0.00%     62.92% # Class of committed instruction
system.cpu.op_class_0::SimdFloatReduceCmp            0      0.00%     62.92% # Class of committed instruction
system.cpu.op_class_0::SimdAes                      0      0.00%     62.92% # Class of committed instruction
system.cpu.op_class_0::SimdAesMix                   0      0.00%     62.92% # Class of committed instruction
system.cpu.op_class_0::SimdSha1Hash                 0      0.00%     62.92% # Class of committed instruction
system.cpu.op_class_0::SimdSha1Hash2                0      0.00%     62.92% # Class of committed instruction
system.cpu.op_class_0::SimdSha256Hash               0      0.00%     62.92% # Class of committed instruction
system.cpu.op_class_0::SimdSha256Hash2              0      0.00%     62.92% # Class of committed instruction
system.cpu.op_class_0::SimdShaSigma2                0      0.00%     62.92% # Class of committed instruction
system.cpu.op_class_0::SimdShaSigma3                0      0.00%     62.92% # Class of committed instruction
system.cpu.op_class_0::SimdPredAlu                  0      0.00%     62.92% # Class of committed instruction
system.cpu.op_class_0::MemRead                 840370     20.01%     82.93% # Class of committed instruction
system.cpu.op_class_0::MemWrite                593237     14.12%     97.06% # Class of committed instruction
system.cpu.op_class_0::FloatMemRead              9988      0.24%     97.29% # Class of committed instruction
system.cpu.op_class_0::FloatMemWrite             8788      0.21%     97.50% # Class of committed instruction
system.cpu.op_class_0::IprAccess               104872      2.50%    100.00% # Class of committed instruction
system.cpu.op_class_0::InstPrefetch                 0      0.00%    100.00% # Class of committed instruction
system.cpu.op_class_0::total                  4200189                       # Class of committed instruction
system.cpu.quiesceCycles                        13447                       # Total number of cycles that CPU has spent quiesced or waiting for an interrupt
system.cpu.tickCycles                         7186946                       # Number of cycles that the object actually ticked
system.disk0.dma_read_bytes                         0                       # Number of bytes transfered via DMA reads (not PRD).
system.disk0.dma_read_full_pages                    0                       # Number of full page size DMA reads (not PRD).
system.disk0.dma_read_txs                           0                       # Number of DMA read transactions (not PRD).
system.disk0.dma_write_bytes                    12288                       # Number of bytes transfered via DMA writes.
system.disk0.dma_write_full_pages                   0                       # Number of full page size DMA writes.
system.disk0.dma_write_txs                          3                       # Number of DMA write transactions.
system.disk2.dma_read_bytes                         0                       # Number of bytes transfered via DMA reads (not PRD).
system.disk2.dma_read_full_pages                    0                       # Number of full page size DMA reads (not PRD).
system.disk2.dma_read_txs                           0                       # Number of DMA read transactions (not PRD).
system.disk2.dma_write_bytes                        0                       # Number of bytes transfered via DMA writes.
system.disk2.dma_write_full_pages                   0                       # Number of full page size DMA writes.
system.disk2.dma_write_txs                          0                       # Number of DMA write transactions.
system.membus.snoop_filter.hit_multi_requests          438                       # Number of requests hitting in the snoop filter with multiple (>1) holders of the requested data.
system.membus.snoop_filter.hit_multi_snoops            0                       # Number of snoops hitting in the snoop filter with multiple (>1) holders of the requested data.
system.membus.snoop_filter.hit_single_requests       156904                       # Number of requests hitting in the snoop filter with a single holder of the requested data.
system.membus.snoop_filter.hit_single_snoops            0                       # Number of snoops hitting in the snoop filter with a single holder of the requested data.
system.membus.snoop_filter.tot_requests        315416                       # Total number of requests made to the snoop filter.
system.membus.snoop_filter.tot_snoops               0                       # Total number of snoops made to the snoop filter.
system.tsunami.ethernet.coalescedRxDesc           nan                       # average number of RxDesc's coalesced into each post
system.tsunami.ethernet.coalescedRxIdle           nan                       # average number of RxIdle's coalesced into each post
system.tsunami.ethernet.coalescedRxOk             nan                       # average number of RxOk's coalesced into each post
system.tsunami.ethernet.coalescedRxOrn            nan                       # average number of RxOrn's coalesced into each post
system.tsunami.ethernet.coalescedSwi              nan                       # average number of Swi's coalesced into each post
system.tsunami.ethernet.coalescedTotal            nan                       # average number of interrupts coalesced into each post
system.tsunami.ethernet.coalescedTxDesc           nan                       # average number of TxDesc's coalesced into each post
system.tsunami.ethernet.coalescedTxIdle           nan                       # average number of TxIdle's coalesced into each post
system.tsunami.ethernet.coalescedTxOk             nan                       # average number of TxOk's coalesced into each post
system.tsunami.ethernet.descDMAReads                0                       # Number of descriptors the device read w/ DMA
system.tsunami.ethernet.descDMAWrites               0                       # Number of descriptors the device wrote w/ DMA
system.tsunami.ethernet.descDmaReadBytes            0                       # number of descriptor bytes read w/ DMA
system.tsunami.ethernet.descDmaWriteBytes            0                       # number of descriptor bytes write w/ DMA
system.tsunami.ethernet.droppedPackets              0                       # number of packets dropped
system.tsunami.ethernet.postedInterrupts            0                       # number of posts to CPU
system.tsunami.ethernet.postedRxDesc                0                       # number of RxDesc interrupts posted to CPU
system.tsunami.ethernet.postedRxIdle                0                       # number of rxIdle interrupts posted to CPU
system.tsunami.ethernet.postedRxOk                  0                       # number of RxOk interrupts posted to CPU
system.tsunami.ethernet.postedRxOrn                 0                       # number of RxOrn posted to CPU
system.tsunami.ethernet.postedSwi                   0                       # number of software interrupts posted to CPU
system.tsunami.ethernet.postedTxDesc                0                       # number of TxDesc interrupts posted to CPU
system.tsunami.ethernet.postedTxIdle                0                       # number of TxIdle interrupts posted to CPU
system.tsunami.ethernet.postedTxOk                  0                       # number of TxOk interrupts posted to CPU
system.tsunami.ethernet.totalRxDesc                 0                       # total number of RxDesc written to ISR
system.tsunami.ethernet.totalRxIdle                 0                       # total number of RxIdle written to ISR
system.tsunami.ethernet.totalRxOk                   0                       # total number of RxOk written to ISR
system.tsunami.ethernet.totalRxOrn                  0                       # total number of RxOrn written to ISR
system.tsunami.ethernet.totalSwi                    0                       # total number of Swi written to ISR
system.tsunami.ethernet.totalTxDesc                 0                       # total number of TxDesc written to ISR
system.tsunami.ethernet.totalTxIdle                 0                       # total number of TxIdle written to ISR
system.tsunami.ethernet.totalTxOk                   0                       # total number of TxOk written to ISR
system.bridge.pwrStateResidencyTicks::UNDEFINED 2542010551500                       # Cumulative time (in ticks) in various power states
system.voltage_domain.voltage                       1                       # Voltage in Volts
system.iocache.pwrStateResidencyTicks::UNDEFINED 2542010551500                       # Cumulative time (in ticks) in various power states
system.iocache.demand_misses::.tsunami.ide          195                       # number of demand (read+write) misses
system.iocache.demand_misses::total               195                       # number of demand (read+write) misses
system.iocache.overall_misses::.tsunami.ide          195                       # number of overall misses
system.iocache.overall_misses::total              195                       # number of overall misses
system.iocache.demand_miss_latency::.tsunami.ide     22945460                       # number of demand (read+write) miss cycles
system.iocache.demand_miss_latency::total     22945460                       # number of demand (read+write) miss cycles
system.iocache.overall_miss_latency::.tsunami.ide     22945460                       # number of overall miss cycles
system.iocache.overall_miss_latency::total     22945460                       # number of overall miss cycles
system.iocache.demand_accesses::.tsunami.ide          195                       # number of demand (read+write) accesses
system.iocache.demand_accesses::total             195                       # number of demand (read+write) accesses
system.iocache.overall_accesses::.tsunami.ide          195                       # number of overall (read+write) accesses
system.iocache.overall_accesses::total            195                       # number of overall (read+write) accesses
system.iocache.demand_miss_rate::.tsunami.ide            1                       # miss rate for demand accesses
system.iocache.demand_miss_rate::total              1                       # miss rate for demand accesses
system.iocache.overall_miss_rate::.tsunami.ide            1                       # miss rate for overall accesses
system.iocache.overall_miss_rate::total             1                       # miss rate for overall accesses
system.iocache.demand_avg_miss_latency::.tsunami.ide 117669.025641                       # average overall miss latency
system.iocache.demand_avg_miss_latency::total 117669.025641                       # average overall miss latency
system.iocache.overall_avg_miss_latency::.tsunami.ide 117669.025641                       # average overall miss latency
system.iocache.overall_avg_miss_latency::total 117669.025641                       # average overall miss latency
system.iocache.blocked_cycles::no_mshrs             0                       # number of cycles access was blocked
system.iocache.blocked_cycles::no_targets            0                       # number of cycles access was blocked
system.iocache.blocked::no_mshrs                    0                       # number of cycles access was blocked
system.iocache.blocked::no_targets                  0                       # number of cycles access was blocked
system.iocache.avg_blocked_cycles::no_mshrs          nan                       # average number of cycles each access was blocked
system.iocache.avg_blocked_cycles::no_targets          nan                       # average number of cycles each access was blocked
system.iocache.writebacks::.writebacks            176                       # number of writebacks
system.iocache.writebacks::total                  176                       # number of writebacks
system.iocache.demand_mshr_misses::.tsunami.ide          195                       # number of demand (read+write) MSHR misses
system.iocache.demand_mshr_misses::total          195                       # number of demand (read+write) MSHR misses
system.iocache.overall_mshr_misses::.tsunami.ide          195                       # number of overall MSHR misses
system.iocache.overall_mshr_misses::total          195                       # number of overall MSHR misses
system.iocache.demand_mshr_miss_latency::.tsunami.ide     13185484                       # number of demand (read+write) MSHR miss cycles
system.iocache.demand_mshr_miss_latency::total     13185484                       # number of demand (read+write) MSHR miss cycles
system.iocache.overall_mshr_miss_latency::.tsunami.ide     13185484                       # number of overall MSHR miss cycles
system.iocache.overall_mshr_miss_latency::total     13185484                       # number of overall MSHR miss cycles
system.iocache.demand_mshr_miss_rate::.tsunami.ide            1                       # mshr miss rate for demand accesses
system.iocache.demand_mshr_miss_rate::total            1                       # mshr miss rate for demand accesses
system.iocache.overall_mshr_miss_rate::.tsunami.ide            1                       # mshr miss rate for overall accesses
system.iocache.overall_mshr_miss_rate::total            1                       # mshr miss rate for overall accesses
system.iocache.demand_avg_mshr_miss_latency::.tsunami.ide 67617.866667                       # average overall mshr miss latency
system.iocache.demand_avg_mshr_miss_latency::total 67617.866667                       # average overall mshr miss latency
system.iocache.overall_avg_mshr_miss_latency::.tsunami.ide 67617.866667                       # average overall mshr miss latency
system.iocache.overall_avg_mshr_miss_latency::total 67617.866667                       # average overall mshr miss latency
system.iocache.replacements                       179                       # number of replacements
system.iocache.ReadReq_misses::.tsunami.ide            3                       # number of ReadReq misses
system.iocache.ReadReq_misses::total                3                       # number of ReadReq misses
system.iocache.ReadReq_miss_latency::.tsunami.ide       349497                       # number of ReadReq miss cycles
system.iocache.ReadReq_miss_latency::total       349497                       # number of ReadReq miss cycles
system.iocache.ReadReq_accesses::.tsunami.ide            3                       # number of ReadReq accesses(hits+misses)
system.iocache.ReadReq_accesses::total              3                       # number of ReadReq accesses(hits+misses)
system.iocache.ReadReq_miss_rate::.tsunami.ide            1                       # miss rate for ReadReq accesses
system.iocache.ReadReq_miss_rate::total             1                       # miss rate for ReadReq accesses
system.iocache.ReadReq_avg_miss_latency::.tsunami.ide       116499                       # average ReadReq miss latency
system.iocache.ReadReq_avg_miss_latency::total       116499                       # average ReadReq miss latency
system.iocache.ReadReq_mshr_misses::.tsunami.ide            3                       # number of ReadReq MSHR misses
system.iocache.ReadReq_mshr_misses::total            3                       # number of ReadReq MSHR misses
system.iocache.ReadReq_mshr_miss_latency::.tsunami.ide       199497                       # number of ReadReq MSHR miss cycles
system.iocache.ReadReq_mshr_miss_latency::total       199497                       # number of ReadReq MSHR miss cycles
system.iocache.ReadReq_mshr_miss_rate::.tsunami.ide            1                       # mshr miss rate for ReadReq accesses
system.iocache.ReadReq_mshr_miss_rate::total            1                       # mshr miss rate for ReadReq accesses
system.iocache.ReadReq_avg_mshr_miss_latency::.tsunami.ide        66499                       # average ReadReq mshr miss latency
system.iocache.ReadReq_avg_mshr_miss_latency::total        66499                       # average ReadReq mshr miss latency
system.iocache.WriteLineReq_misses::.tsunami.ide          192                       # number of WriteLineReq misses
system.iocache.WriteLineReq_misses::total          192                       # number of WriteLineReq misses
system.iocache.WriteLineReq_miss_latency::.tsunami.ide     22595963                       # number of WriteLineReq miss cycles
system.iocache.WriteLineReq_miss_latency::total     22595963                       # number of WriteLineReq miss cycles
system.iocache.WriteLineReq_accesses::.tsunami.ide          192                       # number of WriteLineReq accesses(hits+misses)
system.iocache.WriteLineReq_accesses::total          192                       # number of WriteLineReq accesses(hits+misses)
system.iocache.WriteLineReq_miss_rate::.tsunami.ide            1                       # miss rate for WriteLineReq accesses
system.iocache.WriteLineReq_miss_rate::total            1                       # miss rate for WriteLineReq accesses
system.iocache.WriteLineReq_avg_miss_latency::.tsunami.ide 117687.307292                       # average WriteLineReq miss latency
system.iocache.WriteLineReq_avg_miss_latency::total 117687.307292                       # average WriteLineReq miss latency
system.iocache.WriteLineReq_mshr_misses::.tsunami.ide          192                       # number of WriteLineReq MSHR misses
system.iocache.WriteLineReq_mshr_misses::total          192                       # number of WriteLineReq MSHR misses
system.iocache.WriteLineReq_mshr_miss_latency::.tsunami.ide     12985987                       # number of WriteLineReq MSHR miss cycles
system.iocache.WriteLineReq_mshr_miss_latency::total     12985987                       # number of WriteLineReq MSHR miss cycles
system.iocache.WriteLineReq_mshr_miss_rate::.tsunami.ide            1                       # mshr miss rate for WriteLineReq accesses
system.iocache.WriteLineReq_mshr_miss_rate::total            1                       # mshr miss rate for WriteLineReq accesses
system.iocache.WriteLineReq_avg_mshr_miss_latency::.tsunami.ide 67635.348958                       # average WriteLineReq mshr miss latency
system.iocache.WriteLineReq_avg_mshr_miss_latency::total 67635.348958                       # average WriteLineReq mshr miss latency
system.iocache.tags.pwrStateResidencyTicks::UNDEFINED 2542010551500                       # Cumulative time (in ticks) in various power states
system.iocache.tags.tagsinuse                3.292347                       # Cycle average of tags in use
system.iocache.tags.total_refs                    179                       # Total number of references to valid blocks.
system.iocache.tags.sampled_refs                  179                       # Sample count of references to valid blocks.
system.iocache.tags.avg_refs                        1                       # Average number of references to valid blocks.
system.iocache.tags.warmup_cycle         2539540068000                       # Cycle when the warmup percentage was hit.
system.iocache.tags.occ_blocks::.tsunami.ide     3.292347                       # Average occupied blocks per requestor
system.iocache.tags.occ_percent::.tsunami.ide     0.205772                       # Average percentage of cache occupancy
system.iocache.tags.occ_percent::total       0.205772                       # Average percentage of cache occupancy
system.iocache.tags.occ_task_id_blocks::1023           16                       # Occupied blocks per task id
system.iocache.tags.age_task_id_blocks_1023::3           16                       # Occupied blocks per task id
system.iocache.tags.occ_task_id_percent::1023            1                       # Percentage of cache occupancy per task id
system.iocache.tags.tag_accesses                 1755                       # Number of tag accesses
system.iocache.tags.data_accesses                1755                       # Number of data accesses
system.membus.pwrStateResidencyTicks::UNDEFINED 2542010551500                       # Cumulative time (in ticks) in various power states
system.membus.trans_dist::ReadReq                 108                       # Transaction distribution
system.membus.trans_dist::ReadResp             129470                       # Transaction distribution
system.membus.trans_dist::WriteReq                100                       # Transaction distribution
system.membus.trans_dist::WriteResp               100                       # Transaction distribution
system.membus.trans_dist::WritebackDirty        34923                       # Transaction distribution
system.membus.trans_dist::WritebackClean        87765                       # Transaction distribution
system.membus.trans_dist::CleanEvict            34195                       # Transaction distribution
system.membus.trans_dist::UpgradeReq               16                       # Transaction distribution
system.membus.trans_dist::ReadExReq             28960                       # Transaction distribution
system.membus.trans_dist::ReadExResp            28960                       # Transaction distribution
system.membus.trans_dist::ReadCleanReq          88356                       # Transaction distribution
system.membus.trans_dist::ReadSharedReq         41009                       # Transaction distribution
system.membus.trans_dist::BadAddressError            3                       # Transaction distribution
system.membus.trans_dist::InvalidateReq           192                       # Transaction distribution
system.membus.pkt_count_system.iocache.mem_side::system.mem_ctrls.port          374                       # Packet count per connected master and slave (bytes)
system.membus.pkt_count_system.iocache.mem_side::total          374                       # Packet count per connected master and slave (bytes)
system.membus.pkt_count_system.cpu.icache.mem_side::system.mem_ctrls.port       264415                       # Packet count per connected master and slave (bytes)
system.membus.pkt_count_system.cpu.icache.mem_side::total       264415                       # Packet count per connected master and slave (bytes)
system.membus.pkt_count_system.cpu.dcache.mem_side::system.bridge.slave          416                       # Packet count per connected master and slave (bytes)
system.membus.pkt_count_system.cpu.dcache.mem_side::system.mem_ctrls.port       208881                       # Packet count per connected master and slave (bytes)
system.membus.pkt_count_system.cpu.dcache.mem_side::system.membus.badaddr_responder.pio            6                       # Packet count per connected master and slave (bytes)
system.membus.pkt_count_system.cpu.dcache.mem_side::total       209303                       # Packet count per connected master and slave (bytes)
system.membus.pkt_count::total                 474092                       # Packet count per connected master and slave (bytes)
system.membus.pkt_size_system.iocache.mem_side::system.mem_ctrls.port        11264                       # Cumulative packet size per connected master and slave (bytes)
system.membus.pkt_size_system.iocache.mem_side::total        11264                       # Cumulative packet size per connected master and slave (bytes)
system.membus.pkt_size_system.cpu.icache.mem_side::system.mem_ctrls.port     11267776                       # Cumulative packet size per connected master and slave (bytes)
system.membus.pkt_size_system.cpu.icache.mem_side::total     11267776                       # Cumulative packet size per connected master and slave (bytes)
system.membus.pkt_size_system.cpu.dcache.mem_side::system.bridge.slave          441                       # Cumulative packet size per connected master and slave (bytes)
system.membus.pkt_size_system.cpu.dcache.mem_side::system.mem_ctrls.port      6701440                       # Cumulative packet size per connected master and slave (bytes)
system.membus.pkt_size_system.cpu.dcache.mem_side::total      6701881                       # Cumulative packet size per connected master and slave (bytes)
system.membus.pkt_size::total                17980921                       # Cumulative packet size per connected master and slave (bytes)
system.membus.snoops                               65                       # Total snoops (count)
system.membus.snoopTraffic                       4160                       # Total snoop traffic (bytes)
system.membus.snoop_fanout::samples            158741                       # Request fanout histogram
system.membus.snoop_fanout::mean             0.002766                       # Request fanout histogram
system.membus.snoop_fanout::stdev            0.052516                       # Request fanout histogram
system.membus.snoop_fanout::underflows              0      0.00%      0.00% # Request fanout histogram
system.membus.snoop_fanout::0                  158302     99.72%     99.72% # Request fanout histogram
system.membus.snoop_fanout::1                     439      0.28%    100.00% # Request fanout histogram
system.membus.snoop_fanout::2                       0      0.00%    100.00% # Request fanout histogram
system.membus.snoop_fanout::3                       0      0.00%    100.00% # Request fanout histogram
system.membus.snoop_fanout::overflows               0      0.00%    100.00% # Request fanout histogram
system.membus.snoop_fanout::min_value               0                       # Request fanout histogram
system.membus.snoop_fanout::max_value               1                       # Request fanout histogram
system.membus.snoop_fanout::total              158741                       # Request fanout histogram
system.membus.reqLayer0.occupancy              345000                       # Layer occupancy (ticks)
system.membus.reqLayer0.utilization               0.0                       # Layer utilization (%)
system.membus.reqLayer1.occupancy           828820526                       # Layer occupancy (ticks)
system.membus.reqLayer1.utilization               6.9                       # Layer utilization (%)
system.membus.reqLayer2.occupancy                4000                       # Layer occupancy (ticks)
system.membus.reqLayer2.utilization               0.0                       # Layer utilization (%)
system.membus.respLayer1.occupancy              17997                       # Layer occupancy (ticks)
system.membus.respLayer1.utilization              0.0                       # Layer utilization (%)
system.membus.respLayer3.occupancy          376362500                       # Layer occupancy (ticks)
system.membus.respLayer3.utilization              3.1                       # Layer utilization (%)
system.membus.badaddr_responder.pwrStateResidencyTicks::UNDEFINED 2542010551500                       # Cumulative time (in ticks) in various power states
system.membus.respLayer2.occupancy          468405000                       # Layer occupancy (ticks)
system.membus.respLayer2.utilization              3.9                       # Layer utilization (%)
system.clk_domain.clock                          1000                       # Clock period in ticks
system.tsunami.fake_uart1.pwrStateResidencyTicks::UNDEFINED 2542010551500                       # Cumulative time (in ticks) in various power states
system.tsunami.fake_uart2.pwrStateResidencyTicks::UNDEFINED 2542010551500                       # Cumulative time (in ticks) in various power states
system.tsunami.fake_uart3.pwrStateResidencyTicks::UNDEFINED 2542010551500                       # Cumulative time (in ticks) in various power states
system.tsunami.fake_uart4.pwrStateResidencyTicks::UNDEFINED 2542010551500                       # Cumulative time (in ticks) in various power states
system.tsunami.fake_ppc.pwrStateResidencyTicks::UNDEFINED 2542010551500                       # Cumulative time (in ticks) in various power states
system.tsunami.cchip.pwrStateResidencyTicks::UNDEFINED 2542010551500                       # Cumulative time (in ticks) in various power states
system.tsunami.io.pwrStateResidencyTicks::UNDEFINED 2542010551500                       # Cumulative time (in ticks) in various power states
system.tsunami.pchip.pwrStateResidencyTicks::UNDEFINED 2542010551500                       # Cumulative time (in ticks) in various power states
system.tsunami.fake_ata1.pwrStateResidencyTicks::UNDEFINED 2542010551500                       # Cumulative time (in ticks) in various power states
system.tsunami.fake_ata0.pwrStateResidencyTicks::UNDEFINED 2542010551500                       # Cumulative time (in ticks) in various power states
system.tsunami.backdoor.pwrStateResidencyTicks::UNDEFINED 2542010551500                       # Cumulative time (in ticks) in various power states
system.tsunami.fake_pnp_read3.pwrStateResidencyTicks::UNDEFINED 2542010551500                       # Cumulative time (in ticks) in various power states
system.tsunami.fake_pnp_read2.pwrStateResidencyTicks::UNDEFINED 2542010551500                       # Cumulative time (in ticks) in various power states
system.tsunami.fake_pnp_read1.pwrStateResidencyTicks::UNDEFINED 2542010551500                       # Cumulative time (in ticks) in various power states
system.tsunami.fake_pnp_read0.pwrStateResidencyTicks::UNDEFINED 2542010551500                       # Cumulative time (in ticks) in various power states
system.tsunami.fake_pnp_read7.pwrStateResidencyTicks::UNDEFINED 2542010551500                       # Cumulative time (in ticks) in various power states
system.tsunami.fake_pnp_read6.pwrStateResidencyTicks::UNDEFINED 2542010551500                       # Cumulative time (in ticks) in various power states
system.tsunami.fake_pnp_read5.pwrStateResidencyTicks::UNDEFINED 2542010551500                       # Cumulative time (in ticks) in various power states
system.tsunami.fake_pnp_read4.pwrStateResidencyTicks::UNDEFINED 2542010551500                       # Cumulative time (in ticks) in various power states
system.tsunami.fake_pnp_write.pwrStateResidencyTicks::UNDEFINED 2542010551500                       # Cumulative time (in ticks) in various power states
system.tsunami.fb.pwrStateResidencyTicks::UNDEFINED 2542010551500                       # Cumulative time (in ticks) in various power states
system.tsunami.fake_pnp_addr.pwrStateResidencyTicks::UNDEFINED 2542010551500                       # Cumulative time (in ticks) in various power states
system.tsunami.fake_OROM.pwrStateResidencyTicks::UNDEFINED 2542010551500                       # Cumulative time (in ticks) in various power states
system.tsunami.uart.pwrStateResidencyTicks::UNDEFINED 2542010551500                       # Cumulative time (in ticks) in various power states
system.tsunami.fake_sm_chip.pwrStateResidencyTicks::UNDEFINED 2542010551500                       # Cumulative time (in ticks) in various power states
system.tsunami.ethernet.pwrStateResidencyTicks::UNDEFINED 2542010551500                       # Cumulative time (in ticks) in various power states
system.tsunami.ide.pwrStateResidencyTicks::UNDEFINED 2542010551500                       # Cumulative time (in ticks) in various power states
system.cpu_voltage_domain.voltage                   1                       # Voltage in Volts
system.mem_ctrls.pwrStateResidencyTicks::UNDEFINED 2542010551500                       # Cumulative time (in ticks) in various power states
system.mem_ctrls.bytes_read::.cpu.inst        5650816                       # Number of bytes read from this memory
system.mem_ctrls.bytes_read::.cpu.data        4477632                       # Number of bytes read from this memory
system.mem_ctrls.bytes_read::total           10128448                       # Number of bytes read from this memory
system.mem_ctrls.bytes_inst_read::.cpu.inst      5650816                       # Number of instructions bytes read from this memory
system.mem_ctrls.bytes_inst_read::total       5650816                       # Number of instructions bytes read from this memory
system.mem_ctrls.bytes_written::.writebacks      2235072                       # Number of bytes written to this memory
system.mem_ctrls.bytes_written::total         2235072                       # Number of bytes written to this memory
system.mem_ctrls.num_reads::.cpu.inst           88294                       # Number of read requests responded to by this memory
system.mem_ctrls.num_reads::.cpu.data           69963                       # Number of read requests responded to by this memory
system.mem_ctrls.num_reads::total              158257                       # Number of read requests responded to by this memory
system.mem_ctrls.num_writes::.writebacks        34923                       # Number of write requests responded to by this memory
system.mem_ctrls.num_writes::total              34923                       # Number of write requests responded to by this memory
system.mem_ctrls.bw_read::.cpu.inst         470873611                       # Total read bandwidth from this memory (bytes/s)
system.mem_ctrls.bw_read::.cpu.data         373114033                       # Total read bandwidth from this memory (bytes/s)
system.mem_ctrls.bw_read::total             843987644                       # Total read bandwidth from this memory (bytes/s)
system.mem_ctrls.bw_inst_read::.cpu.inst    470873611                       # Instruction read bandwidth from this memory (bytes/s)
system.mem_ctrls.bw_inst_read::total        470873611                       # Instruction read bandwidth from this memory (bytes/s)
system.mem_ctrls.bw_write::.writebacks      186245035                       # Write bandwidth from this memory (bytes/s)
system.mem_ctrls.bw_write::total            186245035                       # Write bandwidth from this memory (bytes/s)
system.mem_ctrls.bw_total::.writebacks      186245035                       # Total bandwidth to/from this memory (bytes/s)
system.mem_ctrls.bw_total::.cpu.inst        470873611                       # Total bandwidth to/from this memory (bytes/s)
system.mem_ctrls.bw_total::.cpu.data        373114033                       # Total bandwidth to/from this memory (bytes/s)
system.mem_ctrls.bw_total::total           1030232678                       # Total bandwidth to/from this memory (bytes/s)
system.mem_ctrls.avgPriority_.writebacks::samples    120297.00                       # Average QoS priority value for accepted requests
system.mem_ctrls.avgPriority_.cpu.inst::samples     78192.00                       # Average QoS priority value for accepted requests
system.mem_ctrls.avgPriority_.cpu.data::samples     69443.00                       # Average QoS priority value for accepted requests
system.mem_ctrls.priorityMinLatency      0.000000018750                       # per QoS priority minimum request to response latency (s)
system.mem_ctrls.priorityMaxLatency      0.000159786750                       # per QoS priority maximum request to response latency (s)
system.mem_ctrls.numReadWriteTurnArounds         7398                       # Number of turnarounds from READ to WRITE
system.mem_ctrls.numWriteReadTurnArounds         7398                       # Number of turnarounds from WRITE to READ
system.mem_ctrls.numStayReadState              409976                       # Number of times bus staying in READ state
system.mem_ctrls.numStayWriteState             112963                       # Number of times bus staying in WRITE state
system.mem_ctrls.readReqs                      158257                       # Number of read requests accepted
system.mem_ctrls.writeReqs                     122470                       # Number of write requests accepted
system.mem_ctrls.readBursts                    158257                       # Number of DRAM read bursts, including those serviced by the write queue
system.mem_ctrls.writeBursts                   122470                       # Number of DRAM write bursts, including those merged in the write queue
system.mem_ctrls.servicedByWrQ                  10622                       # Number of DRAM read bursts serviced by the write queue
system.mem_ctrls.mergedWrBursts                  2173                       # Number of DRAM write bursts merged with an existing one
system.mem_ctrls.neitherReadNorWriteReqs            0                       # Number of requests that are neither read nor write
system.mem_ctrls.perBankRdBursts::0              8876                       # Per bank write bursts
system.mem_ctrls.perBankRdBursts::1              6733                       # Per bank write bursts
system.mem_ctrls.perBankRdBursts::2             10152                       # Per bank write bursts
system.mem_ctrls.perBankRdBursts::3              7097                       # Per bank write bursts
system.mem_ctrls.perBankRdBursts::4              8687                       # Per bank write bursts
system.mem_ctrls.perBankRdBursts::5             10054                       # Per bank write bursts
system.mem_ctrls.perBankRdBursts::6              8668                       # Per bank write bursts
system.mem_ctrls.perBankRdBursts::7              8756                       # Per bank write bursts
system.mem_ctrls.perBankRdBursts::8             11865                       # Per bank write bursts
system.mem_ctrls.perBankRdBursts::9              9255                       # Per bank write bursts
system.mem_ctrls.perBankRdBursts::10            10642                       # Per bank write bursts
system.mem_ctrls.perBankRdBursts::11            12023                       # Per bank write bursts
system.mem_ctrls.perBankRdBursts::12             8878                       # Per bank write bursts
system.mem_ctrls.perBankRdBursts::13            13562                       # Per bank write bursts
system.mem_ctrls.perBankRdBursts::14             5551                       # Per bank write bursts
system.mem_ctrls.perBankRdBursts::15             6836                       # Per bank write bursts
system.mem_ctrls.perBankWrBursts::0              7260                       # Per bank write bursts
system.mem_ctrls.perBankWrBursts::1              4534                       # Per bank write bursts
system.mem_ctrls.perBankWrBursts::2              8874                       # Per bank write bursts
system.mem_ctrls.perBankWrBursts::3              7945                       # Per bank write bursts
system.mem_ctrls.perBankWrBursts::4              7882                       # Per bank write bursts
system.mem_ctrls.perBankWrBursts::5              9910                       # Per bank write bursts
system.mem_ctrls.perBankWrBursts::6              7528                       # Per bank write bursts
system.mem_ctrls.perBankWrBursts::7              6963                       # Per bank write bursts
system.mem_ctrls.perBankWrBursts::8             10641                       # Per bank write bursts
system.mem_ctrls.perBankWrBursts::9              8444                       # Per bank write bursts
system.mem_ctrls.perBankWrBursts::10             7933                       # Per bank write bursts
system.mem_ctrls.perBankWrBursts::11             8046                       # Per bank write bursts
system.mem_ctrls.perBankWrBursts::12             5463                       # Per bank write bursts
system.mem_ctrls.perBankWrBursts::13             9963                       # Per bank write bursts
system.mem_ctrls.perBankWrBursts::14             3185                       # Per bank write bursts
system.mem_ctrls.perBankWrBursts::15             5706                       # Per bank write bursts
system.mem_ctrls.avgRdQLen                       1.09                       # Average read queue length when enqueuing
system.mem_ctrls.avgWrQLen                      25.70                       # Average write queue length when enqueuing
system.mem_ctrls.totQLat                   2024738750                       # Total ticks spent queuing
system.mem_ctrls.totBusLat                  738175000                       # Total ticks spent in databus transfers
system.mem_ctrls.totMemAccLat              4792895000                       # Total ticks spent from burst creation until serviced by the DRAM
system.mem_ctrls.avgQLat                     13714.49                       # Average queueing delay per DRAM burst
system.mem_ctrls.avgBusLat                    5000.00                       # Average bus latency per DRAM burst
system.mem_ctrls.avgMemAccLat                32464.49                       # Average memory access latency per DRAM burst
system.mem_ctrls.numRdRetry                         0                       # Number of times read queue was full causing retry
system.mem_ctrls.numWrRetry                         0                       # Number of times write queue was full causing retry
system.mem_ctrls.readRowHits                   104509                       # Number of row buffer hits during reads
system.mem_ctrls.writeRowHits                   81073                       # Number of row buffer hits during writes
system.mem_ctrls.readRowHitRate                 70.79                       # Row buffer hit rate for reads
system.mem_ctrls.writeRowHitRate                67.39                       # Row buffer hit rate for writes
system.mem_ctrls.readPktSize::0                     0                       # Read request sizes (log2)
system.mem_ctrls.readPktSize::1                     0                       # Read request sizes (log2)
system.mem_ctrls.readPktSize::2                     0                       # Read request sizes (log2)
system.mem_ctrls.readPktSize::3                     0                       # Read request sizes (log2)
system.mem_ctrls.readPktSize::4                     0                       # Read request sizes (log2)
system.mem_ctrls.readPktSize::5                     0                       # Read request sizes (log2)
system.mem_ctrls.readPktSize::6                158257                       # Read request sizes (log2)
system.mem_ctrls.writePktSize::0                    0                       # Write request sizes (log2)
system.mem_ctrls.writePktSize::1                    0                       # Write request sizes (log2)
system.mem_ctrls.writePktSize::2                    0                       # Write request sizes (log2)
system.mem_ctrls.writePktSize::3                    0                       # Write request sizes (log2)
system.mem_ctrls.writePktSize::4                    0                       # Write request sizes (log2)
system.mem_ctrls.writePktSize::5                    0                       # Write request sizes (log2)
system.mem_ctrls.writePktSize::6               122470                       # Write request sizes (log2)
system.mem_ctrls.rdQLenPdf::0                  134954                       # What read queue length does an incoming req see
system.mem_ctrls.rdQLenPdf::1                   12365                       # What read queue length does an incoming req see
system.mem_ctrls.rdQLenPdf::2                     316                       # What read queue length does an incoming req see
system.mem_ctrls.rdQLenPdf::3                       0                       # What read queue length does an incoming req see
system.mem_ctrls.rdQLenPdf::4                       0                       # What read queue length does an incoming req see
system.mem_ctrls.rdQLenPdf::5                       0                       # What read queue length does an incoming req see
system.mem_ctrls.rdQLenPdf::6                       0                       # What read queue length does an incoming req see
system.mem_ctrls.rdQLenPdf::7                       0                       # What read queue length does an incoming req see
system.mem_ctrls.rdQLenPdf::8                       0                       # What read queue length does an incoming req see
system.mem_ctrls.rdQLenPdf::9                       0                       # What read queue length does an incoming req see
system.mem_ctrls.rdQLenPdf::10                      0                       # What read queue length does an incoming req see
system.mem_ctrls.rdQLenPdf::11                      0                       # What read queue length does an incoming req see
system.mem_ctrls.rdQLenPdf::12                      0                       # What read queue length does an incoming req see
system.mem_ctrls.rdQLenPdf::13                      0                       # What read queue length does an incoming req see
system.mem_ctrls.rdQLenPdf::14                      0                       # What read queue length does an incoming req see
system.mem_ctrls.rdQLenPdf::15                      0                       # What read queue length does an incoming req see
system.mem_ctrls.rdQLenPdf::16                      0                       # What read queue length does an incoming req see
system.mem_ctrls.rdQLenPdf::17                      0                       # What read queue length does an incoming req see
system.mem_ctrls.rdQLenPdf::18                      0                       # What read queue length does an incoming req see
system.mem_ctrls.rdQLenPdf::19                      0                       # What read queue length does an incoming req see
system.mem_ctrls.rdQLenPdf::20                      0                       # What read queue length does an incoming req see
system.mem_ctrls.rdQLenPdf::21                      0                       # What read queue length does an incoming req see
system.mem_ctrls.rdQLenPdf::22                      0                       # What read queue length does an incoming req see
system.mem_ctrls.rdQLenPdf::23                      0                       # What read queue length does an incoming req see
system.mem_ctrls.rdQLenPdf::24                      0                       # What read queue length does an incoming req see
system.mem_ctrls.rdQLenPdf::25                      0                       # What read queue length does an incoming req see
system.mem_ctrls.rdQLenPdf::26                      0                       # What read queue length does an incoming req see
system.mem_ctrls.rdQLenPdf::27                      0                       # What read queue length does an incoming req see
system.mem_ctrls.rdQLenPdf::28                      0                       # What read queue length does an incoming req see
system.mem_ctrls.rdQLenPdf::29                      0                       # What read queue length does an incoming req see
system.mem_ctrls.rdQLenPdf::30                      0                       # What read queue length does an incoming req see
system.mem_ctrls.rdQLenPdf::31                      0                       # What read queue length does an incoming req see
system.mem_ctrls.wrQLenPdf::0                       1                       # What write queue length does an incoming req see
system.mem_ctrls.wrQLenPdf::1                       1                       # What write queue length does an incoming req see
system.mem_ctrls.wrQLenPdf::2                       1                       # What write queue length does an incoming req see
system.mem_ctrls.wrQLenPdf::3                       1                       # What write queue length does an incoming req see
system.mem_ctrls.wrQLenPdf::4                       1                       # What write queue length does an incoming req see
system.mem_ctrls.wrQLenPdf::5                       1                       # What write queue length does an incoming req see
system.mem_ctrls.wrQLenPdf::6                       1                       # What write queue length does an incoming req see
system.mem_ctrls.wrQLenPdf::7                       1                       # What write queue length does an incoming req see
system.mem_ctrls.wrQLenPdf::8                       1                       # What write queue length does an incoming req see
system.mem_ctrls.wrQLenPdf::9                       1                       # What write queue length does an incoming req see
system.mem_ctrls.wrQLenPdf::10                      1                       # What write queue length does an incoming req see
system.mem_ctrls.wrQLenPdf::11                      1                       # What write queue length does an incoming req see
system.mem_ctrls.wrQLenPdf::12                      1                       # What write queue length does an incoming req see
system.mem_ctrls.wrQLenPdf::13                      1                       # What write queue length does an incoming req see
system.mem_ctrls.wrQLenPdf::14                      1                       # What write queue length does an incoming req see
system.mem_ctrls.wrQLenPdf::15                    709                       # What write queue length does an incoming req see
system.mem_ctrls.wrQLenPdf::16                    796                       # What write queue length does an incoming req see
system.mem_ctrls.wrQLenPdf::17                   6827                       # What write queue length does an incoming req see
system.mem_ctrls.wrQLenPdf::18                   7422                       # What write queue length does an incoming req see
system.mem_ctrls.wrQLenPdf::19                   7510                       # What write queue length does an incoming req see
system.mem_ctrls.wrQLenPdf::20                   7478                       # What write queue length does an incoming req see
system.mem_ctrls.wrQLenPdf::21                   7463                       # What write queue length does an incoming req see
system.mem_ctrls.wrQLenPdf::22                   7596                       # What write queue length does an incoming req see
system.mem_ctrls.wrQLenPdf::23                   7484                       # What write queue length does an incoming req see
system.mem_ctrls.wrQLenPdf::24                   7471                       # What write queue length does an incoming req see
system.mem_ctrls.wrQLenPdf::25                   7469                       # What write queue length does an incoming req see
system.mem_ctrls.wrQLenPdf::26                   7486                       # What write queue length does an incoming req see
system.mem_ctrls.wrQLenPdf::27                   7464                       # What write queue length does an incoming req see
system.mem_ctrls.wrQLenPdf::28                   7443                       # What write queue length does an incoming req see
system.mem_ctrls.wrQLenPdf::29                   7430                       # What write queue length does an incoming req see
system.mem_ctrls.wrQLenPdf::30                   7405                       # What write queue length does an incoming req see
system.mem_ctrls.wrQLenPdf::31                   7402                       # What write queue length does an incoming req see
system.mem_ctrls.wrQLenPdf::32                   7400                       # What write queue length does an incoming req see
system.mem_ctrls.wrQLenPdf::33                     15                       # What write queue length does an incoming req see
system.mem_ctrls.wrQLenPdf::34                      7                       # What write queue length does an incoming req see
system.mem_ctrls.wrQLenPdf::35                      4                       # What write queue length does an incoming req see
system.mem_ctrls.wrQLenPdf::36                      1                       # What write queue length does an incoming req see
system.mem_ctrls.wrQLenPdf::37                      0                       # What write queue length does an incoming req see
system.mem_ctrls.wrQLenPdf::38                      0                       # What write queue length does an incoming req see
system.mem_ctrls.wrQLenPdf::39                      0                       # What write queue length does an incoming req see
system.mem_ctrls.wrQLenPdf::40                      0                       # What write queue length does an incoming req see
system.mem_ctrls.wrQLenPdf::41                      0                       # What write queue length does an incoming req see
system.mem_ctrls.wrQLenPdf::42                      0                       # What write queue length does an incoming req see
system.mem_ctrls.wrQLenPdf::43                      0                       # What write queue length does an incoming req see
system.mem_ctrls.wrQLenPdf::44                      0                       # What write queue length does an incoming req see
system.mem_ctrls.wrQLenPdf::45                      0                       # What write queue length does an incoming req see
system.mem_ctrls.wrQLenPdf::46                      0                       # What write queue length does an incoming req see
system.mem_ctrls.wrQLenPdf::47                      0                       # What write queue length does an incoming req see
system.mem_ctrls.wrQLenPdf::48                      0                       # What write queue length does an incoming req see
system.mem_ctrls.wrQLenPdf::49                      0                       # What write queue length does an incoming req see
system.mem_ctrls.wrQLenPdf::50                      0                       # What write queue length does an incoming req see
system.mem_ctrls.wrQLenPdf::51                      0                       # What write queue length does an incoming req see
system.mem_ctrls.wrQLenPdf::52                      0                       # What write queue length does an incoming req see
system.mem_ctrls.wrQLenPdf::53                      0                       # What write queue length does an incoming req see
system.mem_ctrls.wrQLenPdf::54                      0                       # What write queue length does an incoming req see
system.mem_ctrls.wrQLenPdf::55                      0                       # What write queue length does an incoming req see
system.mem_ctrls.wrQLenPdf::56                      0                       # What write queue length does an incoming req see
system.mem_ctrls.wrQLenPdf::57                      0                       # What write queue length does an incoming req see
system.mem_ctrls.wrQLenPdf::58                      0                       # What write queue length does an incoming req see
system.mem_ctrls.wrQLenPdf::59                      0                       # What write queue length does an incoming req see
system.mem_ctrls.wrQLenPdf::60                      0                       # What write queue length does an incoming req see
system.mem_ctrls.wrQLenPdf::61                      0                       # What write queue length does an incoming req see
system.mem_ctrls.wrQLenPdf::62                      0                       # What write queue length does an incoming req see
system.mem_ctrls.wrQLenPdf::63                      0                       # What write queue length does an incoming req see
system.mem_ctrls.bytesPerActivate::samples        82322                       # Bytes accessed per row activation
system.mem_ctrls.bytesPerActivate::mean    208.273268                       # Bytes accessed per row activation
system.mem_ctrls.bytesPerActivate::gmean   139.937587                       # Bytes accessed per row activation
system.mem_ctrls.bytesPerActivate::stdev   225.062730                       # Bytes accessed per row activation
system.mem_ctrls.bytesPerActivate::0-127        35021     42.54%     42.54% # Bytes accessed per row activation
system.mem_ctrls.bytesPerActivate::128-255        24406     29.65%     72.19% # Bytes accessed per row activation
system.mem_ctrls.bytesPerActivate::256-383         9983     12.13%     84.32% # Bytes accessed per row activation
system.mem_ctrls.bytesPerActivate::384-511         4629      5.62%     89.94% # Bytes accessed per row activation
system.mem_ctrls.bytesPerActivate::512-639         2509      3.05%     92.99% # Bytes accessed per row activation
system.mem_ctrls.bytesPerActivate::640-767         1426      1.73%     94.72% # Bytes accessed per row activation
system.mem_ctrls.bytesPerActivate::768-895          939      1.14%     95.86% # Bytes accessed per row activation
system.mem_ctrls.bytesPerActivate::896-1023          614      0.75%     96.60% # Bytes accessed per row activation
system.mem_ctrls.bytesPerActivate::1024-1151         2795      3.40%    100.00% # Bytes accessed per row activation
system.mem_ctrls.bytesPerActivate::total        82322                       # Bytes accessed per row activation
system.mem_ctrls.rdPerTurnAround::samples         7398                       # Reads before turning the bus around for writes
system.mem_ctrls.rdPerTurnAround::mean      19.955664                       # Reads before turning the bus around for writes
system.mem_ctrls.rdPerTurnAround::gmean     18.343650                       # Reads before turning the bus around for writes
system.mem_ctrls.rdPerTurnAround::stdev     12.691424                       # Reads before turning the bus around for writes
system.mem_ctrls.rdPerTurnAround::0-15           1356     18.33%     18.33% # Reads before turning the bus around for writes
system.mem_ctrls.rdPerTurnAround::16-31          5558     75.13%     93.46% # Reads before turning the bus around for writes
system.mem_ctrls.rdPerTurnAround::32-47           285      3.85%     97.31% # Reads before turning the bus around for writes
system.mem_ctrls.rdPerTurnAround::48-63            97      1.31%     98.62% # Reads before turning the bus around for writes
system.mem_ctrls.rdPerTurnAround::64-79            45      0.61%     99.23% # Reads before turning the bus around for writes
system.mem_ctrls.rdPerTurnAround::80-95            20      0.27%     99.50% # Reads before turning the bus around for writes
system.mem_ctrls.rdPerTurnAround::96-111           10      0.14%     99.64% # Reads before turning the bus around for writes
system.mem_ctrls.rdPerTurnAround::112-127           10      0.14%     99.77% # Reads before turning the bus around for writes
system.mem_ctrls.rdPerTurnAround::128-143            9      0.12%     99.89% # Reads before turning the bus around for writes
system.mem_ctrls.rdPerTurnAround::144-159            4      0.05%     99.95% # Reads before turning the bus around for writes
system.mem_ctrls.rdPerTurnAround::176-191            1      0.01%     99.96% # Reads before turning the bus around for writes
system.mem_ctrls.rdPerTurnAround::208-223            1      0.01%     99.97% # Reads before turning the bus around for writes
system.mem_ctrls.rdPerTurnAround::256-271            1      0.01%     99.99% # Reads before turning the bus around for writes
system.mem_ctrls.rdPerTurnAround::400-415            1      0.01%    100.00% # Reads before turning the bus around for writes
system.mem_ctrls.rdPerTurnAround::total          7398                       # Reads before turning the bus around for writes
system.mem_ctrls.wrPerTurnAround::samples         7398                       # Writes before turning the bus around for reads
system.mem_ctrls.wrPerTurnAround::mean      16.258043                       # Writes before turning the bus around for reads
system.mem_ctrls.wrPerTurnAround::gmean     16.241196                       # Writes before turning the bus around for reads
system.mem_ctrls.wrPerTurnAround::stdev      0.774090                       # Writes before turning the bus around for reads
system.mem_ctrls.wrPerTurnAround::16             6575     88.88%     88.88% # Writes before turning the bus around for reads
system.mem_ctrls.wrPerTurnAround::17               80      1.08%     89.96% # Writes before turning the bus around for reads
system.mem_ctrls.wrPerTurnAround::18              472      6.38%     96.34% # Writes before turning the bus around for reads
system.mem_ctrls.wrPerTurnAround::19              206      2.78%     99.12% # Writes before turning the bus around for reads
system.mem_ctrls.wrPerTurnAround::20               58      0.78%     99.91% # Writes before turning the bus around for reads
system.mem_ctrls.wrPerTurnAround::21                7      0.09%    100.00% # Writes before turning the bus around for reads
system.mem_ctrls.wrPerTurnAround::total          7398                       # Writes before turning the bus around for reads
system.mem_ctrls.bytesReadDRAM                9448640                       # Total number of bytes read from DRAM
system.mem_ctrls.bytesReadWrQ                  679808                       # Total number of bytes read from write queue
system.mem_ctrls.bytesWritten                 7697728                       # Total number of bytes written to DRAM
system.mem_ctrls.bytesReadSys                10128448                       # Total read bytes from the system interface side
system.mem_ctrls.bytesWrittenSys              7838080                       # Total written bytes from the system interface side
system.mem_ctrls.avgRdBW                       787.34                       # Average DRAM read bandwidth in MiByte/s
system.mem_ctrls.avgWrBW                       641.44                       # Average achieved write bandwidth in MiByte/s
system.mem_ctrls.avgRdBWSys                    843.99                       # Average system read bandwidth in MiByte/s
system.mem_ctrls.avgWrBWSys                    653.13                       # Average system write bandwidth in MiByte/s
system.mem_ctrls.peakBW                      12800.00                       # Theoretical peak bandwidth in MiByte/s
system.mem_ctrls.busUtil                        11.16                       # Data bus utilization in percentage
system.mem_ctrls.busUtilRead                     6.15                       # Data bus utilization in percentage for reads
system.mem_ctrls.busUtilWrite                    5.01                       # Data bus utilization in percentage for writes
system.mem_ctrls.totGap                   12000701500                       # Total gap between requests
system.mem_ctrls.avgGap                      42748.65                       # Average gap between requests
system.mem_ctrls.masterReadBytes::.cpu.inst      5004288                       # Per-master bytes read from memory
system.mem_ctrls.masterReadBytes::.cpu.data      4444352                       # Per-master bytes read from memory
system.mem_ctrls.masterWriteBytes::.writebacks      7697728                       # Per-master bytes write to memory
system.mem_ctrls.masterReadRate::.cpu.inst 416999449.157430887222                       # Per-master bytes read from memory rate (Bytes/sec)
system.mem_ctrls.masterReadRate::.cpu.data 370340862.848366498947                       # Per-master bytes read from memory rate (Bytes/sec)
[...]
system.cpu.icache.tags.warmup_cycle                 0                       # Cycle when the warmup percentage was hit.
system.cpu.icache.tags.occ_blocks::.cpu.inst   511.985389                       # Average occupied blocks per requestor
system.cpu.icache.tags.occ_percent::.cpu.inst     0.999971                       # Average percentage of cache occupancy
system.cpu.icache.tags.occ_percent::total     0.999971                       # Average percentage of cache occupancy
system.cpu.icache.tags.occ_task_id_blocks::1024          512                       # Occupied blocks per task id
system.cpu.icache.tags.age_task_id_blocks_1024::0           81                       # Occupied blocks per task id
system.cpu.icache.tags.age_task_id_blocks_1024::1           28                       # Occupied blocks per task id
system.cpu.icache.tags.age_task_id_blocks_1024::2          399                       # Occupied blocks per task id
system.cpu.icache.tags.age_task_id_blocks_1024::3            4                       # Occupied blocks per task id
system.cpu.icache.tags.occ_task_id_percent::1024            1                       # Percentage of cache occupancy per task id
system.cpu.icache.tags.tag_accesses           2123934                       # Number of tag accesses
system.cpu.icache.tags.data_accesses          2123934                       # Number of data accesses
system.cpu.dcache.pwrStateResidencyTicks::UNDEFINED  10618359000                       # Cumulative time (in ticks) in various power states
system.cpu.dcache.demand_hits::.cpu.data       750295                       # number of demand (read+write) hits
system.cpu.dcache.demand_hits::total           750295                       # number of demand (read+write) hits
system.cpu.dcache.overall_hits::.cpu.data       750295                       # number of overall hits
system.cpu.dcache.overall_hits::total          750295                       # number of overall hits
system.cpu.dcache.demand_misses::.cpu.data        51385                       # number of demand (read+write) misses
system.cpu.dcache.demand_misses::total          51385                       # number of demand (read+write) misses
system.cpu.dcache.overall_misses::.cpu.data        51385                       # number of overall misses
system.cpu.dcache.overall_misses::total         51385                       # number of overall misses
system.cpu.dcache.demand_miss_latency::.cpu.data   3364446000                       # number of demand (read+write) miss cycles
system.cpu.dcache.demand_miss_latency::total   3364446000                       # number of demand (read+write) miss cycles
system.cpu.dcache.overall_miss_latency::.cpu.data   3364446000                       # number of overall miss cycles
system.cpu.dcache.overall_miss_latency::total   3364446000                       # number of overall miss cycles
system.cpu.dcache.demand_accesses::.cpu.data       801680                       # number of demand (read+write) accesses
system.cpu.dcache.demand_accesses::total       801680                       # number of demand (read+write) accesses
system.cpu.dcache.overall_accesses::.cpu.data       801680                       # number of overall (read+write) accesses
system.cpu.dcache.overall_accesses::total       801680                       # number of overall (read+write) accesses
system.cpu.dcache.demand_miss_rate::.cpu.data     0.064097                       # miss rate for demand accesses
system.cpu.dcache.demand_miss_rate::total     0.064097                       # miss rate for demand accesses
system.cpu.dcache.overall_miss_rate::.cpu.data     0.064097                       # miss rate for overall accesses
system.cpu.dcache.overall_miss_rate::total     0.064097                       # miss rate for overall accesses
system.cpu.dcache.demand_avg_miss_latency::.cpu.data 65475.255425                       # average overall miss latency
system.cpu.dcache.demand_avg_miss_latency::total 65475.255425                       # average overall miss latency
system.cpu.dcache.overall_avg_miss_latency::.cpu.data 65475.255425                       # average overall miss latency
system.cpu.dcache.overall_avg_miss_latency::total 65475.255425                       # average overall miss latency
system.cpu.dcache.blocked_cycles::no_mshrs            0                       # number of cycles access was blocked
system.cpu.dcache.blocked_cycles::no_targets            0                       # number of cycles access was blocked
system.cpu.dcache.blocked::no_mshrs                 0                       # number of cycles access was blocked
system.cpu.dcache.blocked::no_targets               0                       # number of cycles access was blocked
system.cpu.dcache.avg_blocked_cycles::no_mshrs          nan                       # average number of cycles each access was blocked
system.cpu.dcache.avg_blocked_cycles::no_targets          nan                       # average number of cycles each access was blocked
system.cpu.dcache.writebacks::.writebacks        19361                       # number of writebacks
system.cpu.dcache.writebacks::total             19361                       # number of writebacks
system.cpu.dcache.demand_mshr_hits::.cpu.data        18224                       # number of demand (read+write) MSHR hits
system.cpu.dcache.demand_mshr_hits::total        18224                       # number of demand (read+write) MSHR hits
system.cpu.dcache.overall_mshr_hits::.cpu.data        18224                       # number of overall MSHR hits
system.cpu.dcache.overall_mshr_hits::total        18224                       # number of overall MSHR hits
system.cpu.dcache.demand_mshr_misses::.cpu.data        33161                       # number of demand (read+write) MSHR misses
system.cpu.dcache.demand_mshr_misses::total        33161                       # number of demand (read+write) MSHR misses
system.cpu.dcache.overall_mshr_misses::.cpu.data        33161                       # number of overall MSHR misses
system.cpu.dcache.overall_mshr_misses::total        33161                       # number of overall MSHR misses
system.cpu.dcache.overall_mshr_uncacheable_misses::.cpu.data         1941                       # number of overall MSHR uncacheable misses
system.cpu.dcache.overall_mshr_uncacheable_misses::total         1941                       # number of overall MSHR uncacheable misses
system.cpu.dcache.demand_mshr_miss_latency::.cpu.data   2174986000                       # number of demand (read+write) MSHR miss cycles
system.cpu.dcache.demand_mshr_miss_latency::total   2174986000                       # number of demand (read+write) MSHR miss cycles
system.cpu.dcache.overall_mshr_miss_latency::.cpu.data   2174986000                       # number of overall MSHR miss cycles
system.cpu.dcache.overall_mshr_miss_latency::total   2174986000                       # number of overall MSHR miss cycles
system.cpu.dcache.overall_mshr_uncacheable_latency::.cpu.data    233609500                       # number of overall MSHR uncacheable cycles
system.cpu.dcache.overall_mshr_uncacheable_latency::total    233609500                       # number of overall MSHR uncacheable cycles
system.cpu.dcache.demand_mshr_miss_rate::.cpu.data     0.041364                       # mshr miss rate for demand accesses
system.cpu.dcache.demand_mshr_miss_rate::total     0.041364                       # mshr miss rate for demand accesses
system.cpu.dcache.overall_mshr_miss_rate::.cpu.data     0.041364                       # mshr miss rate for overall accesses
system.cpu.dcache.overall_mshr_miss_rate::total     0.041364                       # mshr miss rate for overall accesses
system.cpu.dcache.demand_avg_mshr_miss_latency::.cpu.data 65588.673442                       # average overall mshr miss latency
system.cpu.dcache.demand_avg_mshr_miss_latency::total 65588.673442                       # average overall mshr miss latency
system.cpu.dcache.overall_avg_mshr_miss_latency::.cpu.data 65588.673442                       # average overall mshr miss latency
system.cpu.dcache.overall_avg_mshr_miss_latency::total 65588.673442                       # average overall mshr miss latency
system.cpu.dcache.overall_avg_mshr_uncacheable_latency::.cpu.data 120355.229263                       # average overall mshr uncacheable latency
system.cpu.dcache.overall_avg_mshr_uncacheable_latency::total 120355.229263                       # average overall mshr uncacheable latency
system.cpu.dcache.replacements                  33723                       # number of replacements
system.cpu.dcache.ReadReq_hits::.cpu.data       450359                       # number of ReadReq hits
system.cpu.dcache.ReadReq_hits::total          450359                       # number of ReadReq hits
system.cpu.dcache.ReadReq_misses::.cpu.data        21503                       # number of ReadReq misses
system.cpu.dcache.ReadReq_misses::total         21503                       # number of ReadReq misses
system.cpu.dcache.ReadReq_miss_latency::.cpu.data   1505677500                       # number of ReadReq miss cycles
system.cpu.dcache.ReadReq_miss_latency::total   1505677500                       # number of ReadReq miss cycles
system.cpu.dcache.ReadReq_accesses::.cpu.data       471862                       # number of ReadReq accesses(hits+misses)
system.cpu.dcache.ReadReq_accesses::total       471862                       # number of ReadReq accesses(hits+misses)
system.cpu.dcache.ReadReq_miss_rate::.cpu.data     0.045571                       # miss rate for ReadReq accesses
system.cpu.dcache.ReadReq_miss_rate::total     0.045571                       # miss rate for ReadReq accesses
system.cpu.dcache.ReadReq_avg_miss_latency::.cpu.data 70021.741152                       # average ReadReq miss latency
system.cpu.dcache.ReadReq_avg_miss_latency::total 70021.741152                       # average ReadReq miss latency
system.cpu.dcache.ReadReq_mshr_hits::.cpu.data         3764                       # number of ReadReq MSHR hits
system.cpu.dcache.ReadReq_mshr_hits::total         3764                       # number of ReadReq MSHR hits
system.cpu.dcache.ReadReq_mshr_misses::.cpu.data        17739                       # number of ReadReq MSHR misses
system.cpu.dcache.ReadReq_mshr_misses::total        17739                       # number of ReadReq MSHR misses
system.cpu.dcache.ReadReq_mshr_uncacheable::.cpu.data         1147                       # number of ReadReq MSHR uncacheable
system.cpu.dcache.ReadReq_mshr_uncacheable::total         1147                       # number of ReadReq MSHR uncacheable
system.cpu.dcache.ReadReq_mshr_miss_latency::.cpu.data   1247019000                       # number of ReadReq MSHR miss cycles
system.cpu.dcache.ReadReq_mshr_miss_latency::total   1247019000                       # number of ReadReq MSHR miss cycles
system.cpu.dcache.ReadReq_mshr_uncacheable_latency::.cpu.data    233609500                       # number of ReadReq MSHR uncacheable cycles
system.cpu.dcache.ReadReq_mshr_uncacheable_latency::total    233609500                       # number of ReadReq MSHR uncacheable cycles
system.cpu.dcache.ReadReq_mshr_miss_rate::.cpu.data     0.037594                       # mshr miss rate for ReadReq accesses
system.cpu.dcache.ReadReq_mshr_miss_rate::total     0.037594                       # mshr miss rate for ReadReq accesses
system.cpu.dcache.ReadReq_avg_mshr_miss_latency::.cpu.data 70298.156604                       # average ReadReq mshr miss latency
system.cpu.dcache.ReadReq_avg_mshr_miss_latency::total 70298.156604                       # average ReadReq mshr miss latency
system.cpu.dcache.ReadReq_avg_mshr_uncacheable_latency::.cpu.data 203670.008718                       # average ReadReq mshr uncacheable latency
system.cpu.dcache.ReadReq_avg_mshr_uncacheable_latency::total 203670.008718                       # average ReadReq mshr uncacheable latency
system.cpu.dcache.WriteReq_hits::.cpu.data       299936                       # number of WriteReq hits
system.cpu.dcache.WriteReq_hits::total         299936                       # number of WriteReq hits
system.cpu.dcache.WriteReq_misses::.cpu.data        29882                       # number of WriteReq misses
system.cpu.dcache.WriteReq_misses::total        29882                       # number of WriteReq misses
system.cpu.dcache.WriteReq_miss_latency::.cpu.data   1858768500                       # number of WriteReq miss cycles
system.cpu.dcache.WriteReq_miss_latency::total   1858768500                       # number of WriteReq miss cycles
system.cpu.dcache.WriteReq_accesses::.cpu.data       329818                       # number of WriteReq accesses(hits+misses)
system.cpu.dcache.WriteReq_accesses::total       329818                       # number of WriteReq accesses(hits+misses)
system.cpu.dcache.WriteReq_miss_rate::.cpu.data     0.090601                       # miss rate for WriteReq accesses
system.cpu.dcache.WriteReq_miss_rate::total     0.090601                       # miss rate for WriteReq accesses
system.cpu.dcache.WriteReq_avg_miss_latency::.cpu.data 62203.617562                       # average WriteReq miss latency
system.cpu.dcache.WriteReq_avg_miss_latency::total 62203.617562                       # average WriteReq miss latency
system.cpu.dcache.WriteReq_mshr_hits::.cpu.data        14460                       # number of WriteReq MSHR hits
system.cpu.dcache.WriteReq_mshr_hits::total        14460                       # number of WriteReq MSHR hits
system.cpu.dcache.WriteReq_mshr_misses::.cpu.data        15422                       # number of WriteReq MSHR misses
system.cpu.dcache.WriteReq_mshr_misses::total        15422                       # number of WriteReq MSHR misses
system.cpu.dcache.WriteReq_mshr_uncacheable::.cpu.data          794                       # number of WriteReq MSHR uncacheable
system.cpu.dcache.WriteReq_mshr_uncacheable::total          794                       # number of WriteReq MSHR uncacheable
system.cpu.dcache.WriteReq_mshr_miss_latency::.cpu.data    927967000                       # number of WriteReq MSHR miss cycles
system.cpu.dcache.WriteReq_mshr_miss_latency::total    927967000                       # number of WriteReq MSHR miss cycles
system.cpu.dcache.WriteReq_mshr_miss_rate::.cpu.data     0.046759                       # mshr miss rate for WriteReq accesses
system.cpu.dcache.WriteReq_mshr_miss_rate::total     0.046759                       # mshr miss rate for WriteReq accesses
system.cpu.dcache.WriteReq_avg_mshr_miss_latency::.cpu.data 60171.637920                       # average WriteReq mshr miss latency
system.cpu.dcache.WriteReq_avg_mshr_miss_latency::total 60171.637920                       # average WriteReq mshr miss latency
system.cpu.dcache.LoadLockedReq_hits::.cpu.data         8537                       # number of LoadLockedReq hits
system.cpu.dcache.LoadLockedReq_hits::total         8537                       # number of LoadLockedReq hits
system.cpu.dcache.LoadLockedReq_misses::.cpu.data          574                       # number of LoadLockedReq misses
system.cpu.dcache.LoadLockedReq_misses::total          574                       # number of LoadLockedReq misses
system.cpu.dcache.LoadLockedReq_miss_latency::.cpu.data     42985500                       # number of LoadLockedReq miss cycles
system.cpu.dcache.LoadLockedReq_miss_latency::total     42985500                       # number of LoadLockedReq miss cycles
system.cpu.dcache.LoadLockedReq_accesses::.cpu.data         9111                       # number of LoadLockedReq accesses(hits+misses)
system.cpu.dcache.LoadLockedReq_accesses::total         9111                       # number of LoadLockedReq accesses(hits+misses)
system.cpu.dcache.LoadLockedReq_miss_rate::.cpu.data     0.063001                       # miss rate for LoadLockedReq accesses
system.cpu.dcache.LoadLockedReq_miss_rate::total     0.063001                       # miss rate for LoadLockedReq accesses
system.cpu.dcache.LoadLockedReq_avg_miss_latency::.cpu.data 74887.630662                       # average LoadLockedReq miss latency
system.cpu.dcache.LoadLockedReq_avg_miss_latency::total 74887.630662                       # average LoadLockedReq miss latency
system.cpu.dcache.LoadLockedReq_mshr_misses::.cpu.data          574                       # number of LoadLockedReq MSHR misses
system.cpu.dcache.LoadLockedReq_mshr_misses::total          574                       # number of LoadLockedReq MSHR misses
system.cpu.dcache.LoadLockedReq_mshr_miss_latency::.cpu.data     42411500                       # number of LoadLockedReq MSHR miss cycles
system.cpu.dcache.LoadLockedReq_mshr_miss_latency::total     42411500                       # number of LoadLockedReq MSHR miss cycles
system.cpu.dcache.LoadLockedReq_mshr_miss_rate::.cpu.data     0.063001                       # mshr miss rate for LoadLockedReq accesses
system.cpu.dcache.LoadLockedReq_mshr_miss_rate::total     0.063001                       # mshr miss rate for LoadLockedReq accesses
system.cpu.dcache.LoadLockedReq_avg_mshr_miss_latency::.cpu.data 73887.630662                       # average LoadLockedReq mshr miss latency
system.cpu.dcache.LoadLockedReq_avg_mshr_miss_latency::total 73887.630662                       # average LoadLockedReq mshr miss latency
system.cpu.dcache.StoreCondReq_hits::.cpu.data         8795                       # number of StoreCondReq hits
system.cpu.dcache.StoreCondReq_hits::total         8795                       # number of StoreCondReq hits
system.cpu.dcache.StoreCondReq_accesses::.cpu.data         8795                       # number of StoreCondReq accesses(hits+misses)
system.cpu.dcache.StoreCondReq_accesses::total         8795                       # number of StoreCondReq accesses(hits+misses)
system.cpu.dcache.tags.pwrStateResidencyTicks::UNDEFINED  10618359000                       # Cumulative time (in ticks) in various power states
system.cpu.dcache.tags.tagsinuse                 1024                       # Cycle average of tags in use
system.cpu.dcache.tags.total_refs              824760                       # Total number of references to valid blocks.
system.cpu.dcache.tags.sampled_refs             34747                       # Sample count of references to valid blocks.
system.cpu.dcache.tags.avg_refs             23.736150                       # Average number of references to valid blocks.
system.cpu.dcache.tags.warmup_cycle                 0                       # Cycle when the warmup percentage was hit.
system.cpu.dcache.tags.occ_blocks::.cpu.data         1024                       # Average occupied blocks per requestor
system.cpu.dcache.tags.occ_percent::.cpu.data            1                       # Average percentage of cache occupancy
system.cpu.dcache.tags.occ_percent::total            1                       # Average percentage of cache occupancy
system.cpu.dcache.tags.occ_task_id_blocks::1024         1024                       # Occupied blocks per task id
system.cpu.dcache.tags.age_task_id_blocks_1024::0           46                       # Occupied blocks per task id
system.cpu.dcache.tags.age_task_id_blocks_1024::1          841                       # Occupied blocks per task id
system.cpu.dcache.tags.age_task_id_blocks_1024::2          129                       # Occupied blocks per task id
system.cpu.dcache.tags.age_task_id_blocks_1024::3            8                       # Occupied blocks per task id
system.cpu.dcache.tags.occ_task_id_percent::1024            1                       # Percentage of cache occupancy per task id
system.cpu.dcache.tags.tag_accesses           1672895                       # Number of tag accesses
system.cpu.dcache.tags.data_accesses          1672895                       # Number of data accesses

---------- End Simulation Statistics   ----------
