
---------- Begin Simulation Statistics ----------
final_tick                               2542231494500                       # Number of ticks from beginning of simulation (restored from checkpoints and never reset)
host_inst_rate                                 190741                       # Simulator instruction rate (inst/s)
host_mem_usage                                 746816                       # Number of bytes of host memory used
host_op_rate                                   190740                       # Simulator op (including micro ops) rate (op/s)
host_seconds                                    22.00                       # Real time elapsed on the host
host_tick_rate                              555453156                       # Simulator tick rate (ticks/s)
sim_freq                                 1000000000000                       # Frequency of simulated ticks
sim_insts                                     4196855                       # Number of instructions simulated
sim_ops                                       4196855                       # Number of ops (including micro ops) simulated
sim_seconds                                  0.012222                       # Number of seconds simulated
sim_ticks                                 12221649500                       # Number of ticks simulated
system.cpu.branchPred.BTBCorrect                    0                       # Number of correct BTB predictions (this stat may not work properly.
system.cpu.branchPred.BTBHitPct             51.560350                       # BTB Hit Percentage
system.cpu.branchPred.BTBHits                  383708                       # Number of BTB hits
system.cpu.branchPred.BTBLookups               744192                       # Number of BTB lookups
system.cpu.branchPred.RASInCorrect               2633                       # Number of incorrect RAS predictions.
system.cpu.branchPred.condIncorrect            124828                       # Number of conditional branches incorrect
system.cpu.branchPred.condPredicted            960575                       # Number of conditional branches predicted
system.cpu.branchPred.indirectHits              25761                       # Number of indirect target hits.
system.cpu.branchPred.indirectLookups          214680                       # Number of indirect predictor lookups.
system.cpu.branchPred.indirectMisses           188919                       # Number of indirect misses.
system.cpu.branchPred.lookups                 1170700                       # Number of BP lookups
system.cpu.branchPred.usedRAS                   73171                       # Number of times the RAS was used to get a target.
system.cpu.branchPredindirectMispredicted        30724                       # Number of mispredicted indirect branches.
system.cpu.committedInsts                     4196855                       # Number of instructions committed
system.cpu.committedOps                       4196855                       # Number of ops (including micro ops) committed
system.cpu.cpi                               5.820906                       # CPI: cycles per instruction
system.cpu.discardedOps                        340705                       # Number of ops (including micro ops) which were discarded before commit
system.cpu.dtb.data_accesses                   621077                       # DTB accesses
system.cpu.dtb.data_acv                           131                       # DTB access violations
system.cpu.dtb.data_hits                      1484411                       # DTB hits
system.cpu.dtb.data_misses                       8525                       # DTB misses
system.cpu.dtb.fetch_accesses                       0                       # ITB accesses
system.cpu.dtb.fetch_acv                            0                       # ITB acv
system.cpu.dtb.fetch_hits                           0                       # ITB hits
system.cpu.dtb.fetch_misses                         0                       # ITB misses
system.cpu.dtb.read_accesses                   419079                       # DTB read accesses
system.cpu.dtb.read_acv                            43                       # DTB read access violations
system.cpu.dtb.read_hits                       879831                       # DTB read hits
system.cpu.dtb.read_misses                       7648                       # DTB read misses
system.cpu.dtb.write_accesses                  201998                       # DTB write accesses
system.cpu.dtb.write_acv                           88                       # DTB write access violations
system.cpu.dtb.write_hits                      604580                       # DTB write hits
system.cpu.dtb.write_misses                       877                       # DTB write misses
system.cpu.fetch2.amo_instructions                  0                       # Number of memory atomic instructions successfully decoded
system.cpu.fetch2.fp_instructions               18315                       # Number of floating point instructions successfully decoded
system.cpu.fetch2.int_instructions            3732414                       # Number of integer instructions successfully decoded
system.cpu.fetch2.load_instructions           1187960                       # Number of memory load instructions successfully decoded
system.cpu.fetch2.store_instructions           694693                       # Number of memory store instructions successfully decoded
system.cpu.fetch2.vec_instructions                  0                       # Number of SIMD instructions successfully decoded
system.cpu.idleCycles                        17104265                       # Total number of cycles that the object has spent stopped
system.cpu.ipc                               0.171795                       # IPC: instructions per cycle
system.cpu.itb.data_accesses                        0                       # DTB accesses
system.cpu.itb.data_acv                             0                       # DTB access violations
system.cpu.itb.data_hits                            0                       # DTB hits
system.cpu.itb.data_misses                          0                       # DTB misses
system.cpu.itb.fetch_accesses                 1015748                       # ITB accesses
system.cpu.itb.fetch_acv                          403                       # ITB acv
system.cpu.itb.fetch_hits                     1010197                       # ITB hits
system.cpu.itb.fetch_misses                      5551                       # ITB misses
system.cpu.itb.read_accesses                        0                       # DTB read accesses
system.cpu.itb.read_acv                             0                       # DTB read access violations
system.cpu.itb.read_hits                            0                       # DTB read hits
system.cpu.itb.read_misses                          0                       # DTB read misses
system.cpu.itb.write_accesses                       0                       # DTB write accesses
system.cpu.itb.write_acv                            0                       # DTB write access violations
system.cpu.itb.write_hits                           0                       # DTB write hits
system.cpu.itb.write_misses                         0                       # DTB write misses
system.cpu.kern.callpal::swpctx                   574      9.41%      9.41% # number of callpals executed
system.cpu.kern.callpal::tbi                       25      0.41%      9.82% # number of callpals executed
system.cpu.kern.callpal::swpipl                  4236     69.42%     79.24% # number of callpals executed
system.cpu.kern.callpal::rdps                      50      0.82%     80.06% # number of callpals executed
system.cpu.kern.callpal::wrusp                      4      0.07%     80.12% # number of callpals executed
system.cpu.kern.callpal::rdusp                      3      0.05%     80.17% # number of callpals executed
system.cpu.kern.callpal::rti                      897     14.70%     94.87% # number of callpals executed
system.cpu.kern.callpal::callsys                  235      3.85%     98.72% # number of callpals executed
system.cpu.kern.callpal::imb                       78      1.28%    100.00% # number of callpals executed
system.cpu.kern.callpal::total                   6102                       # number of callpals executed
system.cpu.kern.inst.arm                            0                       # number of arm instructions executed
system.cpu.kern.inst.hwrei                      14446                       # number of hwrei instructions executed
system.cpu.kern.inst.quiesce                        9                       # number of quiesce instructions executed
system.cpu.kern.ipl_count::0                     2438     47.33%     47.33% # number of times we switched to this ipl
system.cpu.kern.ipl_count::21                       5      0.10%     47.43% # number of times we switched to this ipl
system.cpu.kern.ipl_count::22                      13      0.25%     47.68% # number of times we switched to this ipl
system.cpu.kern.ipl_count::31                    2695     52.32%    100.00% # number of times we switched to this ipl
system.cpu.kern.ipl_count::total                 5151                       # number of times we switched to this ipl
system.cpu.kern.ipl_good::0                      2425     49.82%     49.82% # number of times we switched to this ipl from a different ipl
system.cpu.kern.ipl_good::21                        5      0.10%     49.92% # number of times we switched to this ipl from a different ipl
system.cpu.kern.ipl_good::22                       13      0.27%     50.18% # number of times we switched to this ipl from a different ipl
system.cpu.kern.ipl_good::31                     2425     49.82%    100.00% # number of times we switched to this ipl from a different ipl
system.cpu.kern.ipl_good::total                  4868                       # number of times we switched to this ipl from a different ipl
system.cpu.kern.ipl_ticks::0              11262354500     92.12%     92.12% # number of cycles we spent at this ipl
system.cpu.kern.ipl_ticks::21                 9437500      0.08%     92.20% # number of cycles we spent at this ipl
system.cpu.kern.ipl_ticks::22                19587500      0.16%     92.36% # number of cycles we spent at this ipl
system.cpu.kern.ipl_ticks::31               934618500      7.64%    100.00% # number of cycles we spent at this ipl
system.cpu.kern.ipl_ticks::total          12225998000                       # number of cycles we spent at this ipl
system.cpu.kern.ipl_used::0                  0.994668                       # fraction of swpipl calls that actually changed the ipl
system.cpu.kern.ipl_used::21                        1                       # fraction of swpipl calls that actually changed the ipl
system.cpu.kern.ipl_used::22                        1                       # fraction of swpipl calls that actually changed the ipl
system.cpu.kern.ipl_used::31                 0.899814                       # fraction of swpipl calls that actually changed the ipl
system.cpu.kern.ipl_used::total              0.945059                       # fraction of swpipl calls that actually changed the ipl
system.cpu.kern.mode_good::kernel                 870                      
system.cpu.kern.mode_good::user                   870                      
system.cpu.kern.mode_good::idle                     0                      
system.cpu.kern.mode_switch::kernel              1471                       # number of protection mode switches
system.cpu.kern.mode_switch::user                 870                       # number of protection mode switches
system.cpu.kern.mode_switch::idle                   0                       # number of protection mode switches
system.cpu.kern.mode_switch_good::kernel     0.591434                       # fraction of useful protection mode switches
system.cpu.kern.mode_switch_good::user              1                       # fraction of useful protection mode switches
system.cpu.kern.mode_switch_good::idle            nan                       # fraction of useful protection mode switches
system.cpu.kern.mode_switch_good::total      0.743272                       # fraction of useful protection mode switches
system.cpu.kern.mode_ticks::kernel         8209239500     67.15%     67.15% # number of ticks spent at the given mode
system.cpu.kern.mode_ticks::user           4016758500     32.85%    100.00% # number of ticks spent at the given mode
system.cpu.kern.mode_ticks::idle                    0      0.00%    100.00% # number of ticks spent at the given mode
system.cpu.kern.swap_context                      574                       # number of times the context was actually changed
system.cpu.numCycles                         24429499                       # number of cpu cycles simulated
system.cpu.numFetchSuspends                         9                       # Number of times Execute suspended instruction fetching
system.cpu.numWorkItemsCompleted                    0                       # number of work items this cpu completed
system.cpu.numWorkItemsStarted                      0                       # number of work items this cpu started
system.cpu.op_class_0::No_OpClass               85405      2.03%      2.03% # Class of committed instruction
system.cpu.op_class_0::IntAlu                 2541995     60.57%     62.60% # Class of committed instruction
system.cpu.op_class_0::IntMult                   3684      0.09%     62.69% # Class of committed instruction
system.cpu.op_class_0::IntDiv                       0      0.00%     62.69% # Class of committed instruction
system.cpu.op_class_0::FloatAdd                  8286      0.20%     62.89% # Class of committed instruction
system.cpu.op_class_0::FloatCmp                     0      0.00%     62.89% # Class of committed instruction
system.cpu.op_class_0::FloatCvt                     0      0.00%     62.89% # Class of committed instruction
system.cpu.op_class_0::FloatMult                    0      0.00%     62.89% # Class of committed instruction
system.cpu.op_class_0::FloatMultAcc                 0      0.00%     62.89% # Class of committed instruction
system.cpu.op_class_0::FloatDiv                  1593      0.04%     62.93% # Class of committed instruction
system.cpu.op_class_0::FloatMisc                    0      0.00%     62.93% # Class of committed instruction
system.cpu.op_class_0::FloatSqrt                    0      0.00%     62.93% # Class of committed instruction
system.cpu.op_class_0::SimdAdd                      0      0.00%     62.93% # Class of committed instruction
system.cpu.op_class_0::SimdAddAcc                   0      0.00%     62.93% # Class of committed instruction
system.cpu.op_class_0::SimdAlu                      0      0.00%     62.93% # Class of committed instruction
system.cpu.op_class_0::SimdCmp                      0      0.00%     62.93% # Class of committed instruction
system.cpu.op_class_0::SimdCvt                      0      0.00%     62.93% # Class of committed instruction
system.cpu.op_class_0::SimdMisc                     0      0.00%     62.93% # Class of committed instruction
system.cpu.op_class_0::SimdMult                     0      0.00%     62.93% # Class of committed instruction
system.cpu.op_class_0::SimdMultAcc                  0      0.00%     62.93% # Class of committed instruction
system.cpu.op_class_0::SimdShift                    0      0.00%     62.93% # Class of committed instruction
system.cpu.op_class_0::SimdShiftAcc                 0      0.00%     62.93% # Class of committed instruction
system.cpu.op_class_0::SimdDiv                      0      0.00%     62.93% # Class of committed instruction
system.cpu.op_class_0::SimdSqrt                     0      0.00%     62.93% # Class of committed instruction
system.cpu.op_class_0::SimdFloatAdd                 0      0.00%     62.93% # Class of committed instruction
system.cpu.op_class_0::SimdFloatAlu                 0      0.00%     62.93% # Class of committed instruction
system.cpu.op_class_0::SimdFloatCmp                 0      0.00%     62.93% # Class of committed instruction
system.cpu.op_class_0::SimdFloatCvt                 0      0.00%     62.93% # Class of committed instruction
system.cpu.op_class_0::SimdFloatDiv                 0      0.00%     62.93% # Class of committed instruction
system.cpu.op_class_0::SimdFloatMisc                0      0.00%     62.93% # Class of committed instruction
system.cpu.op_class_0::SimdFloatMult                0      0.00%     62.93% # Class of committed instruction
system.cpu.op_class_0::SimdFloatMultAcc             0      0.00%     62.93% # Class of committed instruction
system.cpu.op_class_0::SimdFloatSqrt                0      0.00%     62.93% # Class of committed instruction
system.cpu.op_class_0::SimdReduceAdd                0      0.00%     62.93% # Class of committed instruction
system.cpu.op_class_0::SimdReduceAlu                0      0.00%     62.93% # Class of committed instruction
system.cpu.op_class_0::SimdReduceCmp                0      0.00%     62.93% # Class of committed instruction
system.cpu.op_class_0::SimdFloatReduceAdd            0      0.00%     62.93% # Class of committed instruction
system.cpu.op_class_0::SimdFloatReduceCmp            0      0.00%     62.93% # Class of committed instruction
system.cpu.op_class_0::SimdAes                      0      0.00%     62.93% # Class of committed instruction
system.cpu.op_class_0::SimdAesMix                   0      0.00%     62.93% # Class of committed instruction
system.cpu.op_class_0::SimdSha1Hash                 0      0.00%     62.93% # Class of committed instruction
system.cpu.op_class_0::SimdSha1Hash2                0      0.00%     62.93% # Class of committed instruction
system.cpu.op_class_0::SimdSha256Hash               0      0.00%     62.93% # Class of committed instruction
system.cpu.op_class_0::SimdSha256Hash2              0      0.00%     62.93% # Class of committed instruction
system.cpu.op_class_0::SimdShaSigma2                0      0.00%     62.93% # Class of committed instruction
system.cpu.op_class_0::SimdShaSigma3                0      0.00%     62.93% # Class of committed instruction
system.cpu.op_class_0::SimdPredAlu                  0      0.00%     62.93% # Class of committed instruction
system.cpu.op_class_0::MemRead                 839517     20.00%     82.93% # Class of committed instruction
system.cpu.op_class_0::MemWrite                592663     14.12%     97.05% # Class of committed instruction
system.cpu.op_class_0::FloatMemRead              9988      0.24%     97.29% # Class of committed instruction
system.cpu.op_class_0::FloatMemWrite             8788      0.21%     97.50% # Class of committed instruction
system.cpu.op_class_0::IprAccess               104936      2.50%    100.00% # Class of committed instruction
system.cpu.op_class_0::InstPrefetch                 0      0.00%    100.00% # Class of committed instruction
system.cpu.op_class_0::total                  4196855                       # Class of committed instruction
system.cpu.quiesceCycles                        13800                       # Total number of cycles that CPU has spent quiesced or waiting for an interrupt
system.cpu.tickCycles                         7325234                       # Number of cycles that the object actually ticked
system.disk0.dma_read_bytes                         0                       # Number of bytes transfered via DMA reads (not PRD).
system.disk0.dma_read_full_pages                    0                       # Number of full page size DMA reads (not PRD).
system.disk0.dma_read_txs                           0                       # Number of DMA read transactions (not PRD).
system.disk0.dma_write_bytes                    12288                       # Number of bytes transfered via DMA writes.
system.disk0.dma_write_full_pages                   0                       # Number of full page size DMA writes.
system.disk0.dma_write_txs                          3                       # Number of DMA write transactions.
system.disk2.dma_read_bytes                         0                       # Number of bytes transfered via DMA reads (not PRD).
system.disk2.dma_read_full_pages                    0                       # Number of full page size DMA reads (not PRD).
system.disk2.dma_read_txs                           0                       # Number of DMA read transactions (not PRD).
system.disk2.dma_write_bytes                        0                       # Number of bytes transfered via DMA writes.
system.disk2.dma_write_full_pages                   0                       # Number of full page size DMA writes.
system.disk2.dma_write_txs                          0                       # Number of DMA write transactions.
system.membus.snoop_filter.hit_multi_requests          436                       # Number of requests hitting in the snoop filter with multiple (>1) holders of the requested data.
system.membus.snoop_filter.hit_multi_snoops            0                       # Number of snoops hitting in the snoop filter with multiple (>1) holders of the requested data.
system.membus.snoop_filter.hit_single_requests       158639                       # Number of requests hitting in the snoop filter with a single holder of the requested data.
system.membus.snoop_filter.hit_single_snoops            0                       # Number of snoops hitting in the snoop filter with a single holder of the requested data.
system.membus.snoop_filter.tot_requests        318883                       # Total number of requests made to the snoop filter.
system.membus.snoop_filter.tot_snoops               0                       # Total number of snoops made to the snoop filter.
system.tsunami.ethernet.coalescedRxDesc           nan                       # average number of RxDesc's coalesced into each post
system.tsunami.ethernet.coalescedRxIdle           nan                       # average number of RxIdle's coalesced into each post
system.tsunami.ethernet.coalescedRxOk             nan                       # average number of RxOk's coalesced into each post
system.tsunami.ethernet.coalescedRxOrn            nan                       # average number of RxOrn's coalesced into each post
system.tsunami.ethernet.coalescedSwi              nan                       # average number of Swi's coalesced into each post
system.tsunami.ethernet.coalescedTotal            nan                       # average number of interrupts coalesced into each post
system.tsunami.ethernet.coalescedTxDesc           nan                       # average number of TxDesc's coalesced into each post
system.tsunami.ethernet.coalescedTxIdle           nan                       # average number of TxIdle's coalesced into each post
system.tsunami.ethernet.coalescedTxOk             nan                       # average number of TxOk's coalesced into each post
system.tsunami.ethernet.descDMAReads                0                       # Number of descriptors the device read w/ DMA
system.tsunami.ethernet.descDMAWrites               0                       # Number of descriptors the device wrote w/ DMA
system.tsunami.ethernet.descDmaReadBytes            0                       # number of descriptor bytes read w/ DMA
system.tsunami.ethernet.descDmaWriteBytes            0                       # number of descriptor bytes write w/ DMA
system.tsunami.ethernet.droppedPackets              0                       # number of packets dropped
system.tsunami.ethernet.postedInterrupts            0                       # number of posts to CPU
system.tsunami.ethernet.postedRxDesc                0                       # number of RxDesc interrupts posted to CPU
system.tsunami.ethernet.postedRxIdle                0                       # number of rxIdle interrupts posted to CPU
system.tsunami.ethernet.postedRxOk                  0                       # number of RxOk interrupts posted to CPU
system.tsunami.ethernet.postedRxOrn                 0                       # number of RxOrn posted to CPU
system.tsunami.ethernet.postedSwi                   0                       # number of software interrupts posted to CPU
system.tsunami.ethernet.postedTxDesc                0                       # number of TxDesc interrupts posted to CPU
system.tsunami.ethernet.postedTxIdle                0                       # number of TxIdle interrupts posted to CPU
system.tsunami.ethernet.postedTxOk                  0                       # number of TxOk interrupts posted to CPU
system.tsunami.ethernet.totalRxDesc                 0                       # total number of RxDesc written to ISR
system.tsunami.ethernet.totalRxIdle                 0                       # total number of RxIdle written to ISR
system.tsunami.ethernet.totalRxOk                   0                       # total number of RxOk written to ISR
system.tsunami.ethernet.totalRxOrn                  0                       # total number of RxOrn written to ISR
system.tsunami.ethernet.totalSwi                    0                       # total number of Swi written to ISR
system.tsunami.ethernet.totalTxDesc                 0                       # total number of TxDesc written to ISR
system.tsunami.ethernet.totalTxIdle                 0                       # total number of TxIdle written to ISR
system.tsunami.ethernet.totalTxOk                   0                       # total number of TxOk written to ISR
system.bridge.pwrStateResidencyTicks::UNDEFINED 2542231494500                       # Cumulative time (in ticks) in various power states
system.voltage_domain.voltage                       1                       # Voltage in Volts
system.iocache.pwrStateResidencyTicks::UNDEFINED 2542231494500                       # Cumulative time (in ticks) in various power states
system.iocache.demand_misses::.tsunami.ide          195                       # number of demand (read+write) misses
system.iocache.demand_misses::total               195                       # number of demand (read+write) misses
system.iocache.overall_misses::.tsunami.ide          195                       # number of overall misses
system.iocache.overall_misses::total              195                       # number of overall misses
system.iocache.demand_miss_latency::.tsunami.ide     22734955                       # number of demand (read+write) miss cycles
system.iocache.demand_miss_latency::total     22734955                       # number of demand (read+write) miss cycles
system.iocache.overall_miss_latency::.tsunami.ide     22734955                       # number of overall miss cycles
system.iocache.overall_miss_latency::total     22734955                       # number of overall miss cycles
system.iocache.demand_accesses::.tsunami.ide          195                       # number of demand (read+write) accesses
system.iocache.demand_accesses::total             195                       # number of demand (read+write) accesses
system.iocache.overall_accesses::.tsunami.ide          195                       # number of overall (read+write) accesses
system.iocache.overall_accesses::total            195                       # number of overall (read+write) accesses
system.iocache.demand_miss_rate::.tsunami.ide            1                       # miss rate for demand accesses
system.iocache.demand_miss_rate::total              1                       # miss rate for demand accesses
system.iocache.overall_miss_rate::.tsunami.ide            1                       # miss rate for overall accesses
system.iocache.overall_miss_rate::total             1                       # miss rate for overall accesses
system.iocache.demand_avg_miss_latency::.tsunami.ide 116589.512821                       # average overall miss latency
system.iocache.demand_avg_miss_latency::total 116589.512821                       # average overall miss latency
system.iocache.overall_avg_miss_latency::.tsunami.ide 116589.512821                       # average overall miss latency
system.iocache.overall_avg_miss_latency::total 116589.512821                       # average overall miss latency
system.iocache.blocked_cycles::no_mshrs             0                       # number of cycles access was blocked
system.iocache.blocked_cycles::no_targets            0                       # number of cycles access was blocked
system.iocache.blocked::no_mshrs                    0                       # number of cycles access was blocked
system.iocache.blocked::no_targets                  0                       # number of cycles access was blocked
system.iocache.avg_blocked_cycles::no_mshrs          nan                       # average number of cycles each access was blocked
system.iocache.avg_blocked_cycles::no_targets          nan                       # average number of cycles each access was blocked
system.iocache.writebacks::.writebacks            176                       # number of writebacks
system.iocache.writebacks::total                  176                       # number of writebacks
system.iocache.demand_mshr_misses::.tsunami.ide          195                       # number of demand (read+write) MSHR misses
system.iocache.demand_mshr_misses::total          195                       # number of demand (read+write) MSHR misses
system.iocache.overall_mshr_misses::.tsunami.ide          195                       # number of overall MSHR misses
system.iocache.overall_mshr_misses::total          195                       # number of overall MSHR misses
system.iocache.demand_mshr_miss_latency::.tsunami.ide     12970990                       # number of demand (read+write) MSHR miss cycles
system.iocache.demand_mshr_miss_latency::total     12970990                       # number of demand (read+write) MSHR miss cycles
system.iocache.overall_mshr_miss_latency::.tsunami.ide     12970990                       # number of overall MSHR miss cycles
system.iocache.overall_mshr_miss_latency::total     12970990                       # number of overall MSHR miss cycles
system.iocache.demand_mshr_miss_rate::.tsunami.ide            1                       # mshr miss rate for demand accesses
system.iocache.demand_mshr_miss_rate::total            1                       # mshr miss rate for demand accesses
system.iocache.overall_mshr_miss_rate::.tsunami.ide            1                       # mshr miss rate for overall accesses
system.iocache.overall_mshr_miss_rate::total            1                       # mshr miss rate for overall accesses
system.iocache.demand_avg_mshr_miss_latency::.tsunami.ide 66517.897436                       # average overall mshr miss latency
system.iocache.demand_avg_mshr_miss_latency::total 66517.897436                       # average overall mshr miss latency
system.iocache.overall_avg_mshr_miss_latency::.tsunami.ide 66517.897436                       # average overall mshr miss latency
system.iocache.overall_avg_mshr_miss_latency::total 66517.897436                       # average overall mshr miss latency
system.iocache.replacements                       179                       # number of replacements
system.iocache.ReadReq_misses::.tsunami.ide            3                       # number of ReadReq misses
system.iocache.ReadReq_misses::total                3                       # number of ReadReq misses
system.iocache.ReadReq_miss_latency::.tsunami.ide       349997                       # number of ReadReq miss cycles
system.iocache.ReadReq_miss_latency::total       349997                       # number of ReadReq miss cycles
system.iocache.ReadReq_accesses::.tsunami.ide            3                       # number of ReadReq accesses(hits+misses)
system.iocache.ReadReq_accesses::total              3                       # number of ReadReq accesses(hits+misses)
system.iocache.ReadReq_miss_rate::.tsunami.ide            1                       # miss rate for ReadReq accesses
system.iocache.ReadReq_miss_rate::total             1                       # miss rate for ReadReq accesses
system.iocache.ReadReq_avg_miss_latency::.tsunami.ide 116665.666667                       # average ReadReq miss latency
system.iocache.ReadReq_avg_miss_latency::total 116665.666667                       # average ReadReq miss latency
system.iocache.ReadReq_mshr_misses::.tsunami.ide            3                       # number of ReadReq MSHR misses
system.iocache.ReadReq_mshr_misses::total            3                       # number of ReadReq MSHR misses
system.iocache.ReadReq_mshr_miss_latency::.tsunami.ide       199997                       # number of ReadReq MSHR miss cycles
system.iocache.ReadReq_mshr_miss_latency::total       199997                       # number of ReadReq MSHR miss cycles
system.iocache.ReadReq_mshr_miss_rate::.tsunami.ide            1                       # mshr miss rate for ReadReq accesses
system.iocache.ReadReq_mshr_miss_rate::total            1                       # mshr miss rate for ReadReq accesses
system.iocache.ReadReq_avg_mshr_miss_latency::.tsunami.ide 66665.666667                       # average ReadReq mshr miss latency
system.iocache.ReadReq_avg_mshr_miss_latency::total 66665.666667                       # average ReadReq mshr miss latency
system.iocache.WriteLineReq_misses::.tsunami.ide          192                       # number of WriteLineReq misses
system.iocache.WriteLineReq_misses::total          192                       # number of WriteLineReq misses
system.iocache.WriteLineReq_miss_latency::.tsunami.ide     22384958                       # number of WriteLineReq miss cycles
system.iocache.WriteLineReq_miss_latency::total     22384958                       # number of WriteLineReq miss cycles
system.iocache.WriteLineReq_accesses::.tsunami.ide          192                       # number of WriteLineReq accesses(hits+misses)
system.iocache.WriteLineReq_accesses::total          192                       # number of WriteLineReq accesses(hits+misses)
system.iocache.WriteLineReq_miss_rate::.tsunami.ide            1                       # miss rate for WriteLineReq accesses
system.iocache.WriteLineReq_miss_rate::total            1                       # miss rate for WriteLineReq accesses
system.iocache.WriteLineReq_avg_miss_latency::.tsunami.ide 116588.322917                       # average WriteLineReq miss latency
system.iocache.WriteLineReq_avg_miss_latency::total 116588.322917                       # average WriteLineReq miss latency
system.iocache.WriteLineReq_mshr_misses::.tsunami.ide          192                       # number of WriteLineReq MSHR misses
system.iocache.WriteLineReq_mshr_misses::total          192                       # number of WriteLineReq MSHR misses
system.iocache.WriteLineReq_mshr_miss_latency::.tsunami.ide     12770993                       # number of WriteLineReq MSHR miss cycles
system.iocache.WriteLineReq_mshr_miss_latency::total     12770993                       # number of WriteLineReq MSHR miss cycles
system.iocache.WriteLineReq_mshr_miss_rate::.tsunami.ide            1                       # mshr miss rate for WriteLineReq accesses
system.iocache.WriteLineReq_mshr_miss_rate::total            1                       # mshr miss rate for WriteLineReq accesses
system.iocache.WriteLineReq_avg_mshr_miss_latency::.tsunami.ide 66515.588542                       # average WriteLineReq mshr miss latency
system.iocache.WriteLineReq_avg_mshr_miss_latency::total 66515.588542                       # average WriteLineReq mshr miss latency
system.iocache.tags.pwrStateResidencyTicks::UNDEFINED 2542231494500                       # Cumulative time (in ticks) in various power states
system.iocache.tags.tagsinuse                3.288871                       # Cycle average of tags in use
system.iocache.tags.total_refs                    179                       # Total number of references to valid blocks.
system.iocache.tags.sampled_refs                  179                       # Sample count of references to valid blocks.
system.iocache.tags.avg_refs                        1                       # Average number of references to valid blocks.
system.iocache.tags.warmup_cycle         2539718202000                       # Cycle when the warmup percentage was hit.
system.iocache.tags.occ_blocks::.tsunami.ide     3.288871                       # Average occupied blocks per requestor
system.iocache.tags.occ_percent::.tsunami.ide     0.205554                       # Average percentage of cache occupancy
system.iocache.tags.occ_percent::total       0.205554                       # Average percentage of cache occupancy
system.iocache.tags.occ_task_id_blocks::1023           16                       # Occupied blocks per task id
system.iocache.tags.age_task_id_blocks_1023::3           16                       # Occupied blocks per task id
system.iocache.tags.occ_task_id_percent::1023            1                       # Percentage of cache occupancy per task id
system.iocache.tags.tag_accesses                 1755                       # Number of tag accesses
system.iocache.tags.data_accesses                1755                       # Number of data accesses
system.membus.pwrStateResidencyTicks::UNDEFINED 2542231494500                       # Cumulative time (in ticks) in various power states
system.membus.trans_dist::ReadReq                 108                       # Transaction distribution
system.membus.trans_dist::ReadResp             131189                       # Transaction distribution
system.membus.trans_dist::WriteReq                100                       # Transaction distribution
system.membus.trans_dist::WriteResp               100                       # Transaction distribution
system.membus.trans_dist::WritebackDirty        34896                       # Transaction distribution
system.membus.trans_dist::WritebackClean        89158                       # Transaction distribution
system.membus.trans_dist::CleanEvict            34564                       # Transaction distribution
system.membus.trans_dist::UpgradeReq               15                       # Transaction distribution
system.membus.trans_dist::ReadExReq             28975                       # Transaction distribution
system.membus.trans_dist::ReadExResp            28975                       # Transaction distribution
system.membus.trans_dist::ReadCleanReq          89748                       # Transaction distribution
system.membus.trans_dist::ReadSharedReq         41335                       # Transaction distribution
system.membus.trans_dist::BadAddressError            2                       # Transaction distribution
system.membus.trans_dist::InvalidateReq           192                       # Transaction distribution
system.membus.pkt_count_system.iocache.mem_side::system.mem_ctrls.port          374                       # Packet count per connected master and slave (bytes)
system.membus.pkt_count_system.iocache.mem_side::total          374                       # Packet count per connected master and slave (bytes)
system.membus.pkt_count_system.cpu.icache.mem_side::system.mem_ctrls.port       268589                       # Packet count per connected master and slave (bytes)
system.membus.pkt_count_system.cpu.icache.mem_side::total       268589                       # Packet count per connected master and slave (bytes)
system.membus.pkt_count_system.cpu.dcache.mem_side::system.bridge.slave          416                       # Packet count per connected master and slave (bytes)
system.membus.pkt_count_system.cpu.dcache.mem_side::system.mem_ctrls.port       209906                       # Packet count per connected master and slave (bytes)
system.membus.pkt_count_system.cpu.dcache.mem_side::system.membus.badaddr_responder.pio            4                       # Packet count per connected master and slave (bytes)
system.membus.pkt_count_system.cpu.dcache.mem_side::total       210326                       # Packet count per connected master and slave (bytes)
system.membus.pkt_count::total                 479289                       # Packet count per connected master and slave (bytes)
system.membus.pkt_size_system.iocache.mem_side::system.mem_ctrls.port        11264                       # Cumulative packet size per connected master and slave (bytes)
system.membus.pkt_size_system.iocache.mem_side::total        11264                       # Cumulative packet size per connected master and slave (bytes)
system.membus.pkt_size_system.cpu.icache.mem_side::system.mem_ctrls.port     11445824                       # Cumulative packet size per connected master and slave (bytes)
system.membus.pkt_size_system.cpu.icache.mem_side::total     11445824                       # Cumulative packet size per connected master and slave (bytes)
system.membus.pkt_size_system.cpu.dcache.mem_side::system.bridge.slave          441                       # Cumulative packet size per connected master and slave (bytes)
system.membus.pkt_size_system.cpu.dcache.mem_side::system.mem_ctrls.port      6721600                       # Cumulative packet size per connected master and slave (bytes)
system.membus.pkt_size_system.cpu.dcache.mem_side::total      6722041                       # Cumulative packet size per connected master and slave (bytes)
system.membus.pkt_size::total                18179129                       # Cumulative packet size per connected master and slave (bytes)
system.membus.snoops                               68                       # Total snoops (count)
system.membus.snoopTraffic                       4352                       # Total snoop traffic (bytes)
system.membus.snoop_fanout::samples            160473                       # Request fanout histogram
system.membus.snoop_fanout::mean             0.002723                       # Request fanout histogram
system.membus.snoop_fanout::stdev            0.052113                       # Request fanout histogram
system.membus.snoop_fanout::underflows              0      0.00%      0.00% # Request fanout histogram
system.membus.snoop_fanout::0                  160036     99.73%     99.73% # Request fanout histogram
system.membus.snoop_fanout::1                     437      0.27%    100.00% # Request fanout histogram
system.membus.snoop_fanout::2                       0      0.00%    100.00% # Request fanout histogram
system.membus.snoop_fanout::3                       0      0.00%    100.00% # Request fanout histogram
system.membus.snoop_fanout::overflows               0      0.00%    100.00% # Request fanout histogram
system.membus.snoop_fanout::min_value               0                       # Request fanout histogram
system.membus.snoop_fanout::max_value               1                       # Request fanout histogram
system.membus.snoop_fanout::total              160473                       # Request fanout histogram
system.membus.reqLayer0.occupancy              356500                       # Layer occupancy (ticks)
system.membus.reqLayer0.utilization               0.0                       # Layer utilization (%)
system.membus.reqLayer1.occupancy           838476538                       # Layer occupancy (ticks)
system.membus.reqLayer1.utilization               6.9                       # Layer utilization (%)
system.membus.reqLayer2.occupancy                3000                       # Layer occupancy (ticks)
system.membus.reqLayer2.utilization               0.0                       # Layer utilization (%)
system.membus.respLayer1.occupancy              17997                       # Layer occupancy (ticks)
system.membus.respLayer1.utilization              0.0                       # Layer utilization (%)
system.membus.respLayer3.occupancy          378274250                       # Layer occupancy (ticks)
system.membus.respLayer3.utilization              3.1                       # Layer utilization (%)
system.membus.badaddr_responder.pwrStateResidencyTicks::UNDEFINED 2542231494500                       # Cumulative time (in ticks) in various power states
system.membus.respLayer2.occupancy          475817750                       # Layer occupancy (ticks)
system.membus.respLayer2.utilization              3.9                       # Layer utilization (%)
system.clk_domain.clock                          1000                       # Clock period in ticks
system.tsunami.fake_uart1.pwrStateResidencyTicks::UNDEFINED 2542231494500                       # Cumulative time (in ticks) in various power states
system.tsunami.fake_uart2.pwrStateResidencyTicks::UNDEFINED 2542231494500                       # Cumulative time (in ticks) in various power states
system.tsunami.fake_uart3.pwrStateResidencyTicks::UNDEFINED 2542231494500                       # Cumulative time (in ticks) in various power states
system.tsunami.fake_uart4.pwrStateResidencyTicks::UNDEFINED 2542231494500                       # Cumulative time (in ticks) in various power states
system.tsunami.fake_ppc.pwrStateResidencyTicks::UNDEFINED 2542231494500                       # Cumulative time (in ticks) in various power states
system.tsunami.cchip.pwrStateResidencyTicks::UNDEFINED 2542231494500                       # Cumulative time (in ticks) in various power states
system.tsunami.io.pwrStateResidencyTicks::UNDEFINED 2542231494500                       # Cumulative time (in ticks) in various power states
system.tsunami.pchip.pwrStateResidencyTicks::UNDEFINED 2542231494500                       # Cumulative time (in ticks) in various power states
system.tsunami.fake_ata1.pwrStateResidencyTicks::UNDEFINED 2542231494500                       # Cumulative time (in ticks) in various power states
system.tsunami.fake_ata0.pwrStateResidencyTicks::UNDEFINED 2542231494500                       # Cumulative time (in ticks) in various power states
system.tsunami.backdoor.pwrStateResidencyTicks::UNDEFINED 2542231494500                       # Cumulative time (in ticks) in various power states
system.tsunami.fake_pnp_read3.pwrStateResidencyTicks::UNDEFINED 2542231494500                       # Cumulative time (in ticks) in various power states
system.tsunami.fake_pnp_read2.pwrStateResidencyTicks::UNDEFINED 2542231494500                       # Cumulative time (in ticks) in various power states
system.tsunami.fake_pnp_read1.pwrStateResidencyTicks::UNDEFINED 2542231494500                       # Cumulative time (in ticks) in various power states
system.tsunami.fake_pnp_read0.pwrStateResidencyTicks::UNDEFINED 2542231494500                       # Cumulative time (in ticks) in various power states
system.tsunami.fake_pnp_read7.pwrStateResidencyTicks::UNDEFINED 2542231494500                       # Cumulative time (in ticks) in various power states
system.tsunami.fake_pnp_read6.pwrStateResidencyTicks::UNDEFINED 2542231494500                       # Cumulative time (in ticks) in various power states
system.tsunami.fake_pnp_read5.pwrStateResidencyTicks::UNDEFINED 2542231494500                       # Cumulative time (in ticks) in various power states
system.tsunami.fake_pnp_read4.pwrStateResidencyTicks::UNDEFINED 2542231494500                       # Cumulative time (in ticks) in various power states
system.tsunami.fake_pnp_write.pwrStateResidencyTicks::UNDEFINED 2542231494500                       # Cumulative time (in ticks) in various power states
system.tsunami.fb.pwrStateResidencyTicks::UNDEFINED 2542231494500                       # Cumulative time (in ticks) in various power states
system.tsunami.fake_pnp_addr.pwrStateResidencyTicks::UNDEFINED 2542231494500                       # Cumulative time (in ticks) in various power states
system.tsunami.fake_OROM.pwrStateResidencyTicks::UNDEFINED 2542231494500                       # Cumulative time (in ticks) in various power states
system.tsunami.uart.pwrStateResidencyTicks::UNDEFINED 2542231494500                       # Cumulative time (in ticks) in various power states
system.tsunami.fake_sm_chip.pwrStateResidencyTicks::UNDEFINED 2542231494500                       # Cumulative time (in ticks) in various power states
system.tsunami.ethernet.pwrStateResidencyTicks::UNDEFINED 2542231494500                       # Cumulative time (in ticks) in various power states
system.tsunami.ide.pwrStateResidencyTicks::UNDEFINED 2542231494500                       # Cumulative time (in ticks) in various power states
system.cpu_voltage_domain.voltage                   1                       # Voltage in Volts
system.mem_ctrls.pwrStateResidencyTicks::UNDEFINED 2542231494500                       # Cumulative time (in ticks) in various power states
system.mem_ctrls.bytes_read::.cpu.inst        5739712                       # Number of bytes read from this memory
system.mem_ctrls.bytes_read::.cpu.data        4499520                       # Number of bytes read from this memory
system.mem_ctrls.bytes_read::total           10239232                       # Number of bytes read from this memory
system.mem_ctrls.bytes_inst_read::.cpu.inst      5739712                       # Number of instructions bytes read from this memory
system.mem_ctrls.bytes_inst_read::total       5739712                       # Number of instructions bytes read from this memory
system.mem_ctrls.bytes_written::.writebacks      2233344                       # Number of bytes written to this memory
system.mem_ctrls.bytes_written::total         2233344                       # Number of bytes written to this memory
system.mem_ctrls.num_reads::.cpu.inst           89683                       # Number of read requests responded to by this memory
system.mem_ctrls.num_reads::.cpu.data           70305                       # Number of read requests responded to by this memory
system.mem_ctrls.num_reads::total              159988                       # Number of read requests responded to by this memory
system.mem_ctrls.num_writes::.writebacks        34896                       # Number of write requests responded to by this memory
system.mem_ctrls.num_writes::total              34896                       # Number of write requests responded to by this memory
system.mem_ctrls.bw_read::.cpu.inst         469634807                       # Total read bandwidth from this memory (bytes/s)
system.mem_ctrls.bw_read::.cpu.data         368159797                       # Total read bandwidth from this memory (bytes/s)
system.mem_ctrls.bw_read::total             837794604                       # Total read bandwidth from this memory (bytes/s)
system.mem_ctrls.bw_inst_read::.cpu.inst    469634807                       # Instruction read bandwidth from this memory (bytes/s)
system.mem_ctrls.bw_inst_read::total        469634807                       # Instruction read bandwidth from this memory (bytes/s)
system.mem_ctrls.bw_write::.writebacks      182736708                       # Write bandwidth from this memory (bytes/s)
system.mem_ctrls.bw_write::total            182736708                       # Write bandwidth from this memory (bytes/s)
system.mem_ctrls.bw_total::.writebacks      182736708                       # Total bandwidth to/from this memory (bytes/s)
system.mem_ctrls.bw_total::.cpu.inst        469634807                       # Total bandwidth to/from this memory (bytes/s)
system.mem_ctrls.bw_total::.cpu.data        368159797                       # Total bandwidth to/from this memory (bytes/s)
system.mem_ctrls.bw_total::total           1020531312                       # Total bandwidth to/from this memory (bytes/s)
system.mem_ctrls.avgPriority_.writebacks::samples    121726.00                       # Average QoS priority value for accepted requests
system.mem_ctrls.avgPriority_.cpu.inst::samples     79516.00                       # Average QoS priority value for accepted requests
system.mem_ctrls.avgPriority_.cpu.data::samples     69793.00                       # Average QoS priority value for accepted requests
system.mem_ctrls.priorityMinLatency      0.000000018750                       # per QoS priority minimum request to response latency (s)
system.mem_ctrls.priorityMaxLatency      0.000177850250                       # per QoS priority maximum request to response latency (s)
system.mem_ctrls.numReadWriteTurnArounds         7487                       # Number of turnarounds from READ to WRITE
system.mem_ctrls.numWriteReadTurnArounds         7488                       # Number of turnarounds from WRITE to READ
system.mem_ctrls.numStayReadState              414684                       # Number of times bus staying in READ state
system.mem_ctrls.numStayWriteState             114307                       # Number of times bus staying in WRITE state
system.mem_ctrls.readReqs                      159988                       # Number of read requests accepted
system.mem_ctrls.writeReqs                     123837                       # Number of write requests accepted
system.mem_ctrls.readBursts                    159988                       # Number of DRAM read bursts, including those serviced by the write queue
system.mem_ctrls.writeBursts                   123837                       # Number of DRAM write bursts, including those merged in the write queue
system.mem_ctrls.servicedByWrQ                  10679                       # Number of DRAM read bursts serviced by the write queue
system.mem_ctrls.mergedWrBursts                  2111                       # Number of DRAM write bursts merged with an existing one
system.mem_ctrls.neitherReadNorWriteReqs            0                       # Number of requests that are neither read nor write
system.mem_ctrls.perBankRdBursts::0              8961                       # Per bank write bursts
system.mem_ctrls.perBankRdBursts::1              6656                       # Per bank write bursts
system.mem_ctrls.perBankRdBursts::2             10419                       # Per bank write bursts
system.mem_ctrls.perBankRdBursts::3              7275                       # Per bank write bursts
system.mem_ctrls.perBankRdBursts::4              8687                       # Per bank write bursts
system.mem_ctrls.perBankRdBursts::5             10003                       # Per bank write bursts
system.mem_ctrls.perBankRdBursts::6              8778                       # Per bank write bursts
system.mem_ctrls.perBankRdBursts::7              8771                       # Per bank write bursts
system.mem_ctrls.perBankRdBursts::8             12116                       # Per bank write bursts
system.mem_ctrls.perBankRdBursts::9              9401                       # Per bank write bursts
system.mem_ctrls.perBankRdBursts::10            10840                       # Per bank write bursts
system.mem_ctrls.perBankRdBursts::11            12187                       # Per bank write bursts
system.mem_ctrls.perBankRdBursts::12             8886                       # Per bank write bursts
system.mem_ctrls.perBankRdBursts::13            13758                       # Per bank write bursts
system.mem_ctrls.perBankRdBursts::14             5600                       # Per bank write bursts
system.mem_ctrls.perBankRdBursts::15             6971                       # Per bank write bursts
system.mem_ctrls.perBankWrBursts::0              7303                       # Per bank write bursts
system.mem_ctrls.perBankWrBursts::1              4463                       # Per bank write bursts
system.mem_ctrls.perBankWrBursts::2              9188                       # Per bank write bursts
system.mem_ctrls.perBankWrBursts::3              8089                       # Per bank write bursts
system.mem_ctrls.perBankWrBursts::4              7853                       # Per bank write bursts
system.mem_ctrls.perBankWrBursts::5              9738                       # Per bank write bursts
system.mem_ctrls.perBankWrBursts::6              7604                       # Per bank write bursts
system.mem_ctrls.perBankWrBursts::7              6970                       # Per bank write bursts
system.mem_ctrls.perBankWrBursts::8             10961                       # Per bank write bursts
system.mem_ctrls.perBankWrBursts::9              8555                       # Per bank write bursts
system.mem_ctrls.perBankWrBursts::10             8227                       # Per bank write bursts
system.mem_ctrls.perBankWrBursts::11             8127                       # Per bank write bursts
system.mem_ctrls.perBankWrBursts::12             5508                       # Per bank write bursts
system.mem_ctrls.perBankWrBursts::13            10111                       # Per bank write bursts
system.mem_ctrls.perBankWrBursts::14             3196                       # Per bank write bursts
system.mem_ctrls.perBankWrBursts::15             5807                       # Per bank write bursts
system.mem_ctrls.avgRdQLen                       1.09                       # Average read queue length when enqueuing
system.mem_ctrls.avgWrQLen                      25.67                       # Average write queue length when enqueuing
system.mem_ctrls.totQLat                   2037674250                       # Total ticks spent queuing
system.mem_ctrls.totBusLat                  746545000                       # Total ticks spent in databus transfers
system.mem_ctrls.totMemAccLat              4837218000                       # Total ticks spent from burst creation until serviced by the DRAM
system.mem_ctrls.avgQLat                     13647.36                       # Average queueing delay per DRAM burst
system.mem_ctrls.avgBusLat                    5000.00                       # Average bus latency per DRAM burst
system.mem_ctrls.avgMemAccLat                32397.36                       # Average memory access latency per DRAM burst
system.mem_ctrls.numRdRetry                         0                       # Number of times read queue was full causing retry
system.mem_ctrls.numWrRetry                         0                       # Number of times write queue was full causing retry
system.mem_ctrls.readRowHits                   105839                       # Number of row buffer hits during reads
system.mem_ctrls.writeRowHits                   82196                       # Number of row buffer hits during writes
system.mem_ctrls.readRowHitRate                 70.89                       # Row buffer hit rate for reads
system.mem_ctrls.writeRowHitRate                67.53                       # Row buffer hit rate for writes
system.mem_ctrls.readPktSize::0                     0                       # Read request sizes (log2)
system.mem_ctrls.readPktSize::1                     0                       # Read request sizes (log2)
system.mem_ctrls.readPktSize::2                     0                       # Read request sizes (log2)
system.mem_ctrls.readPktSize::3                     0                       # Read request sizes (log2)
system.mem_ctrls.readPktSize::4                     0                       # Read request sizes (log2)
system.mem_ctrls.readPktSize::5                     0                       # Read request sizes (log2)
system.mem_ctrls.readPktSize::6                159988                       # Read request sizes (log2)
system.mem_ctrls.writePktSize::0                    0                       # Write request sizes (log2)
system.mem_ctrls.writePktSize::1                    0                       # Write request sizes (log2)
system.mem_ctrls.writePktSize::2                    0                       # Write request sizes (log2)
system.mem_ctrls.writePktSize::3                    0                       # Write request sizes (log2)
system.mem_ctrls.writePktSize::4                    0                       # Write request sizes (log2)
system.mem_ctrls.writePktSize::5                    0                       # Write request sizes (log2)
system.mem_ctrls.writePktSize::6               123837                       # Write request sizes (log2)
system.mem_ctrls.rdQLenPdf::0                  136795                       # What read queue length does an incoming req see
system.mem_ctrls.rdQLenPdf::1                   12203                       # What read queue length does an incoming req see
system.mem_ctrls.rdQLenPdf::2                     311                       # What read queue length does an incoming req see
system.mem_ctrls.rdQLenPdf::3                       0                       # What read queue length does an incoming req see
system.mem_ctrls.rdQLenPdf::4                       0                       # What read queue length does an incoming req see
system.mem_ctrls.rdQLenPdf::5                       0                       # What read queue length does an incoming req see
system.mem_ctrls.rdQLenPdf::6                       0                       # What read queue length does an incoming req see
system.mem_ctrls.rdQLenPdf::7                       0                       # What read queue length does an incoming req see
system.mem_ctrls.rdQLenPdf::8                       0                       # What read queue length does an incoming req see
system.mem_ctrls.rdQLenPdf::9                       0                       # What read queue length does an incoming req see
system.mem_ctrls.rdQLenPdf::10                      0                       # What read queue length does an incoming req see
system.mem_ctrls.rdQLenPdf::11                      0                       # What read queue length does an incoming req see
system.mem_ctrls.rdQLenPdf::12                      0                       # What read queue length does an incoming req see
system.mem_ctrls.rdQLenPdf::13                      0                       # What read queue length does an incoming req see
system.mem_ctrls.rdQLenPdf::14                      0                       # What read queue length does an incoming req see
system.mem_ctrls.rdQLenPdf::15                      0                       # What read queue length does an incoming req see
system.mem_ctrls.rdQLenPdf::16                      0                       # What read queue length does an incoming req see
system.mem_ctrls.rdQLenPdf::17                      0                       # What read queue length does an incoming req see
system.mem_ctrls.rdQLenPdf::18                      0                       # What read queue length does an incoming req see
system.mem_ctrls.rdQLenPdf::19                      0                       # What read queue length does an incoming req see
system.mem_ctrls.rdQLenPdf::20                      0                       # What read queue length does an incoming req see
system.mem_ctrls.rdQLenPdf::21                      0                       # What read queue length does an incoming req see
system.mem_ctrls.rdQLenPdf::22                      0                       # What read queue length does an incoming req see
system.mem_ctrls.rdQLenPdf::23                      0                       # What read queue length does an incoming req see
system.mem_ctrls.rdQLenPdf::24                      0                       # What read queue length does an incoming req see
system.mem_ctrls.rdQLenPdf::25                      0                       # What read queue length does an incoming req see
system.mem_ctrls.rdQLenPdf::26                      0                       # What read queue length does an incoming req see
system.mem_ctrls.rdQLenPdf::27                      0                       # What read queue length does an incoming req see
system.mem_ctrls.rdQLenPdf::28                      0                       # What read queue length does an incoming req see
system.mem_ctrls.rdQLenPdf::29                      0                       # What read queue length does an incoming req see
system.mem_ctrls.rdQLenPdf::30                      0                       # What read queue length does an incoming req see
system.mem_ctrls.rdQLenPdf::31                      0                       # What read queue length does an incoming req see
system.mem_ctrls.wrQLenPdf::0                       1                       # What write queue length does an incoming req see
system.mem_ctrls.wrQLenPdf::1                       1                       # What write queue length does an incoming req see
system.mem_ctrls.wrQLenPdf::2                       1                       # What write queue length does an incoming req see
system.mem_ctrls.wrQLenPdf::3                       1                       # What write queue length does an incoming req see
system.mem_ctrls.wrQLenPdf::4                       1                       # What write queue length does an incoming req see
system.mem_ctrls.wrQLenPdf::5                       1                       # What write queue length does an incoming req see
system.mem_ctrls.wrQLenPdf::6                       1                       # What write queue length does an incoming req see
system.mem_ctrls.wrQLenPdf::7                       1                       # What write queue length does an incoming req see
system.mem_ctrls.wrQLenPdf::8                       1                       # What write queue length does an incoming req see
system.mem_ctrls.wrQLenPdf::9                       1                       # What write queue length does an incoming req see
system.mem_ctrls.wrQLenPdf::10                      1                       # What write queue length does an incoming req see
system.mem_ctrls.wrQLenPdf::11                      1                       # What write queue length does an incoming req see
system.mem_ctrls.wrQLenPdf::12                      1                       # What write queue length does an incoming req see
system.mem_ctrls.wrQLenPdf::13                      1                       # What write queue length does an incoming req see
system.mem_ctrls.wrQLenPdf::14                      1                       # What write queue length does an incoming req see
system.mem_ctrls.wrQLenPdf::15                    688                       # What write queue length does an incoming req see
system.mem_ctrls.wrQLenPdf::16                    802                       # What write queue length does an incoming req see
system.mem_ctrls.wrQLenPdf::17                   6924                       # What write queue length does an incoming req see
system.mem_ctrls.wrQLenPdf::18                   7515                       # What write queue length does an incoming req see
system.mem_ctrls.wrQLenPdf::19                   7591                       # What write queue length does an incoming req see
system.mem_ctrls.wrQLenPdf::20                   7564                       # What write queue length does an incoming req see
system.mem_ctrls.wrQLenPdf::21                   7569                       # What write queue length does an incoming req see
system.mem_ctrls.wrQLenPdf::22                   7658                       # What write queue length does an incoming req see
system.mem_ctrls.wrQLenPdf::23                   7578                       # What write queue length does an incoming req see
system.mem_ctrls.wrQLenPdf::24                   7562                       # What write queue length does an incoming req see
system.mem_ctrls.wrQLenPdf::25                   7573                       # What write queue length does an incoming req see
system.mem_ctrls.wrQLenPdf::26                   7577                       # What write queue length does an incoming req see
system.mem_ctrls.wrQLenPdf::27                   7537                       # What write queue length does an incoming req see
system.mem_ctrls.wrQLenPdf::28                   7534                       # What write queue length does an incoming req see
system.mem_ctrls.wrQLenPdf::29                   7512                       # What write queue length does an incoming req see
system.mem_ctrls.wrQLenPdf::30                   7489                       # What write queue length does an incoming req see
system.mem_ctrls.wrQLenPdf::31                   7487                       # What write queue length does an incoming req see
system.mem_ctrls.wrQLenPdf::32                   7487                       # What write queue length does an incoming req see
system.mem_ctrls.wrQLenPdf::33                      8                       # What write queue length does an incoming req see
system.mem_ctrls.wrQLenPdf::34                      6                       # What write queue length does an incoming req see
system.mem_ctrls.wrQLenPdf::35                      5                       # What write queue length does an incoming req see
system.mem_ctrls.wrQLenPdf::36                      2                       # What write queue length does an incoming req see
system.mem_ctrls.wrQLenPdf::37                      2                       # What write queue length does an incoming req see
system.mem_ctrls.wrQLenPdf::38                      2                       # What write queue length does an incoming req see
system.mem_ctrls.wrQLenPdf::39                      1                       # What write queue length does an incoming req see
system.mem_ctrls.wrQLenPdf::40                      1                       # What write queue length does an incoming req see
system.mem_ctrls.wrQLenPdf::41                      1                       # What write queue length does an incoming req see
system.mem_ctrls.wrQLenPdf::42                      1                       # What write queue length does an incoming req see
system.mem_ctrls.wrQLenPdf::43                      1                       # What write queue length does an incoming req see
system.mem_ctrls.wrQLenPdf::44                      2                       # What write queue length does an incoming req see
system.mem_ctrls.wrQLenPdf::45                      7                       # What write queue length does an incoming req see
system.mem_ctrls.wrQLenPdf::46                      8                       # What write queue length does an incoming req see
system.mem_ctrls.wrQLenPdf::47                      3                       # What write queue length does an incoming req see
system.mem_ctrls.wrQLenPdf::48                      4                       # What write queue length does an incoming req see
system.mem_ctrls.wrQLenPdf::49                      3                       # What write queue length does an incoming req see
system.mem_ctrls.wrQLenPdf::50                      4                       # What write queue length does an incoming req see
system.mem_ctrls.wrQLenPdf::51                      1                       # What write queue length does an incoming req see
system.mem_ctrls.wrQLenPdf::52                      2                       # What write queue length does an incoming req see
system.mem_ctrls.wrQLenPdf::53                      0                       # What write queue length does an incoming req see
system.mem_ctrls.wrQLenPdf::54                      0                       # What write queue length does an incoming req see
system.mem_ctrls.wrQLenPdf::55                      0                       # What write queue length does an incoming req see
system.mem_ctrls.wrQLenPdf::56                      0                       # What write queue length does an incoming req see
system.mem_ctrls.wrQLenPdf::57                      0                       # What write queue length does an incoming req see
system.mem_ctrls.wrQLenPdf::58                      0                       # What write queue length does an incoming req see
system.mem_ctrls.wrQLenPdf::59                      0                       # What write queue length does an incoming req see
system.mem_ctrls.wrQLenPdf::60                      0                       # What write queue length does an incoming req see
system.mem_ctrls.wrQLenPdf::61                      0                       # What write queue length does an incoming req see
system.mem_ctrls.wrQLenPdf::62                      0                       # What write queue length does an incoming req see
system.mem_ctrls.wrQLenPdf::63                      0                       # What write queue length does an incoming req see
system.mem_ctrls.bytesPerActivate::samples        82963                       # Bytes accessed per row activation
system.mem_ctrls.bytesPerActivate::mean    209.030050                       # Bytes accessed per row activation
system.mem_ctrls.bytesPerActivate::gmean   140.560765                       # Bytes accessed per row activation
system.mem_ctrls.bytesPerActivate::stdev   225.363192                       # Bytes accessed per row activation
system.mem_ctrls.bytesPerActivate::0-127        35035     42.23%     42.23% # Bytes accessed per row activation
system.mem_ctrls.bytesPerActivate::128-255        24712     29.79%     72.02% # Bytes accessed per row activation
system.mem_ctrls.bytesPerActivate::256-383        10172     12.26%     84.28% # Bytes accessed per row activation
system.mem_ctrls.bytesPerActivate::384-511         4757      5.73%     90.01% # Bytes accessed per row activation
system.mem_ctrls.bytesPerActivate::512-639         2382      2.87%     92.88% # Bytes accessed per row activation
system.mem_ctrls.bytesPerActivate::640-767         1480      1.78%     94.67% # Bytes accessed per row activation
system.mem_ctrls.bytesPerActivate::768-895          972      1.17%     95.84% # Bytes accessed per row activation
system.mem_ctrls.bytesPerActivate::896-1023          617      0.74%     96.58% # Bytes accessed per row activation
system.mem_ctrls.bytesPerActivate::1024-1151         2836      3.42%    100.00% # Bytes accessed per row activation
system.mem_ctrls.bytesPerActivate::total        82963                       # Bytes accessed per row activation
system.mem_ctrls.rdPerTurnAround::samples         7488                       # Reads before turning the bus around for writes
system.mem_ctrls.rdPerTurnAround::mean      19.939770                       # Reads before turning the bus around for writes
system.mem_ctrls.rdPerTurnAround::gmean     18.357387                       # Reads before turning the bus around for writes
system.mem_ctrls.rdPerTurnAround::stdev     12.544638                       # Reads before turning the bus around for writes
system.mem_ctrls.rdPerTurnAround::0-15           1360     18.16%     18.16% # Reads before turning the bus around for writes
system.mem_ctrls.rdPerTurnAround::16-31          5633     75.23%     93.39% # Reads before turning the bus around for writes
system.mem_ctrls.rdPerTurnAround::32-47           307      4.10%     97.49% # Reads before turning the bus around for writes
system.mem_ctrls.rdPerTurnAround::48-63            89      1.19%     98.68% # Reads before turning the bus around for writes
system.mem_ctrls.rdPerTurnAround::64-79            39      0.52%     99.20% # Reads before turning the bus around for writes
system.mem_ctrls.rdPerTurnAround::80-95            17      0.23%     99.43% # Reads before turning the bus around for writes
system.mem_ctrls.rdPerTurnAround::96-111           18      0.24%     99.67% # Reads before turning the bus around for writes
system.mem_ctrls.rdPerTurnAround::112-127            9      0.12%     99.79% # Reads before turning the bus around for writes
system.mem_ctrls.rdPerTurnAround::128-143            7      0.09%     99.88% # Reads before turning the bus around for writes
system.mem_ctrls.rdPerTurnAround::144-159            4      0.05%     99.93% # Reads before turning the bus around for writes
system.mem_ctrls.rdPerTurnAround::160-175            1      0.01%     99.95% # Reads before turning the bus around for writes
system.mem_ctrls.rdPerTurnAround::176-191            2      0.03%     99.97% # Reads before turning the bus around for writes
system.mem_ctrls.rdPerTurnAround::256-271            1      0.01%     99.99% # Reads before turning the bus around for writes
system.mem_ctrls.rdPerTurnAround::416-431            1      0.01%    100.00% # Reads before turning the bus around for writes
system.mem_ctrls.rdPerTurnAround::total          7488                       # Reads before turning the bus around for writes
system.mem_ctrls.wrPerTurnAround::samples         7487                       # Writes before turning the bus around for reads
system.mem_ctrls.wrPerTurnAround::mean      16.253907                       # Writes before turning the bus around for reads
system.mem_ctrls.wrPerTurnAround::gmean     16.237388                       # Writes before turning the bus around for reads
system.mem_ctrls.wrPerTurnAround::stdev      0.767382                       # Writes before turning the bus around for reads
system.mem_ctrls.wrPerTurnAround::16             6656     88.90%     88.90% # Writes before turning the bus around for reads
system.mem_ctrls.wrPerTurnAround::17               84      1.12%     90.02% # Writes before turning the bus around for reads
system.mem_ctrls.wrPerTurnAround::18              502      6.70%     96.73% # Writes before turning the bus around for reads
system.mem_ctrls.wrPerTurnAround::19              182      2.43%     99.16% # Writes before turning the bus around for reads
system.mem_ctrls.wrPerTurnAround::20               53      0.71%     99.87% # Writes before turning the bus around for reads
system.mem_ctrls.wrPerTurnAround::21                8      0.11%     99.97% # Writes before turning the bus around for reads
system.mem_ctrls.wrPerTurnAround::23                1      0.01%     99.99% # Writes before turning the bus around for reads
system.mem_ctrls.wrPerTurnAround::24                1      0.01%    100.00% # Writes before turning the bus around for reads
system.mem_ctrls.wrPerTurnAround::total          7487                       # Writes before turning the bus around for reads
system.mem_ctrls.bytesReadDRAM                9555776                       # Total number of bytes read from DRAM
system.mem_ctrls.bytesReadWrQ                  683456                       # Total number of bytes read from write queue
system.mem_ctrls.bytesWritten                 7788800                       # Total number of bytes written to DRAM
system.mem_ctrls.bytesReadSys                10239232                       # Total read bytes from the system interface side
system.mem_ctrls.bytesWrittenSys              7925568                       # Total written bytes from the system interface side
system.mem_ctrls.avgRdBW                       781.87                       # Average DRAM read bandwidth in MiByte/s
system.mem_ctrls.avgWrBW                       637.30                       # Average achieved write bandwidth in MiByte/s
system.mem_ctrls.avgRdBWSys                    837.79                       # Average system read bandwidth in MiByte/s
system.mem_ctrls.avgWrBWSys                    648.49                       # Average system write bandwidth in MiByte/s
system.mem_ctrls.peakBW                      12800.00                       # Theoretical peak bandwidth in MiByte/s
system.mem_ctrls.busUtil                        11.09                       # Data bus utilization in percentage
system.mem_ctrls.busUtilRead                     6.11                       # Data bus utilization in percentage for reads
system.mem_ctrls.busUtilWrite                    4.98                       # Data bus utilization in percentage for writes
system.mem_ctrls.totGap                   12221644500                       # Total gap between requests
system.mem_ctrls.avgGap                      43060.49                       # Average gap between requests
system.mem_ctrls.masterReadBytes::.cpu.inst      5089024                       # Per-master bytes read from memory
system.mem_ctrls.masterReadBytes::.cpu.data      4466752                       # Per-master bytes read from memory
system.mem_ctrls.masterWriteBytes::.writebacks      7788800                       # Per-master bytes write to memory
[...]
system.cpu.icache.tags.occ_percent::total            1                       # Average percentage of cache occupancy
system.cpu.icache.tags.occ_task_id_blocks::1024          512                       # Occupied blocks per task id
system.cpu.icache.tags.age_task_id_blocks_1024::0           71                       # Occupied blocks per task id
system.cpu.icache.tags.age_task_id_blocks_1024::1            7                       # Occupied blocks per task id
system.cpu.icache.tags.age_task_id_blocks_1024::2            8                       # Occupied blocks per task id
system.cpu.icache.tags.age_task_id_blocks_1024::3          159                       # Occupied blocks per task id
system.cpu.icache.tags.age_task_id_blocks_1024::4          267                       # Occupied blocks per task id
system.cpu.icache.tags.occ_task_id_percent::1024            1                       # Percentage of cache occupancy per task id
system.cpu.icache.tags.tag_accesses         257835762                       # Number of tag accesses
system.cpu.icache.tags.data_accesses        257835762                       # Number of data accesses
system.cpu.dcache.pwrStateResidencyTicks::UNDEFINED 448487446500                       # Cumulative time (in ticks) in various power states
system.cpu.dcache.demand_hits::.cpu.data    107143947                       # number of demand (read+write) hits
system.cpu.dcache.demand_hits::total        107143947                       # number of demand (read+write) hits
system.cpu.dcache.overall_hits::.cpu.data    107143947                       # number of overall hits
system.cpu.dcache.overall_hits::total       107143947                       # number of overall hits
system.cpu.dcache.demand_misses::.cpu.data      3297849                       # number of demand (read+write) misses
system.cpu.dcache.demand_misses::total        3297849                       # number of demand (read+write) misses
system.cpu.dcache.overall_misses::.cpu.data      3297849                       # number of overall misses
system.cpu.dcache.overall_misses::total       3297849                       # number of overall misses
system.cpu.dcache.demand_miss_latency::.cpu.data 198251798000                       # number of demand (read+write) miss cycles
system.cpu.dcache.demand_miss_latency::total 198251798000                       # number of demand (read+write) miss cycles
system.cpu.dcache.overall_miss_latency::.cpu.data 198251798000                       # number of overall miss cycles
system.cpu.dcache.overall_miss_latency::total 198251798000                       # number of overall miss cycles
system.cpu.dcache.demand_accesses::.cpu.data    110441796                       # number of demand (read+write) accesses
system.cpu.dcache.demand_accesses::total    110441796                       # number of demand (read+write) accesses
system.cpu.dcache.overall_accesses::.cpu.data    110441796                       # number of overall (read+write) accesses
system.cpu.dcache.overall_accesses::total    110441796                       # number of overall (read+write) accesses
system.cpu.dcache.demand_miss_rate::.cpu.data     0.029861                       # miss rate for demand accesses
system.cpu.dcache.demand_miss_rate::total     0.029861                       # miss rate for demand accesses
system.cpu.dcache.overall_miss_rate::.cpu.data     0.029861                       # miss rate for overall accesses
system.cpu.dcache.overall_miss_rate::total     0.029861                       # miss rate for overall accesses
system.cpu.dcache.demand_avg_miss_latency::.cpu.data 60115.486792                       # average overall miss latency
system.cpu.dcache.demand_avg_miss_latency::total 60115.486792                       # average overall miss latency
system.cpu.dcache.overall_avg_miss_latency::.cpu.data 60115.486792                       # average overall miss latency
system.cpu.dcache.overall_avg_miss_latency::total 60115.486792                       # average overall miss latency
system.cpu.dcache.blocked_cycles::no_mshrs            0                       # number of cycles access was blocked
system.cpu.dcache.blocked_cycles::no_targets            0                       # number of cycles access was blocked
system.cpu.dcache.blocked::no_mshrs                 0                       # number of cycles access was blocked
system.cpu.dcache.blocked::no_targets               0                       # number of cycles access was blocked
system.cpu.dcache.avg_blocked_cycles::no_mshrs          nan                       # average number of cycles each access was blocked
system.cpu.dcache.avg_blocked_cycles::no_targets          nan                       # average number of cycles each access was blocked
system.cpu.dcache.writebacks::.writebacks      1395810                       # number of writebacks
system.cpu.dcache.writebacks::total           1395810                       # number of writebacks
system.cpu.dcache.demand_mshr_hits::.cpu.data       851151                       # number of demand (read+write) MSHR hits
system.cpu.dcache.demand_mshr_hits::total       851151                       # number of demand (read+write) MSHR hits
system.cpu.dcache.overall_mshr_hits::.cpu.data       851151                       # number of overall MSHR hits
system.cpu.dcache.overall_mshr_hits::total       851151                       # number of overall MSHR hits
system.cpu.dcache.demand_mshr_misses::.cpu.data      2446698                       # number of demand (read+write) MSHR misses
system.cpu.dcache.demand_mshr_misses::total      2446698                       # number of demand (read+write) MSHR misses
system.cpu.dcache.overall_mshr_misses::.cpu.data      2446698                       # number of overall MSHR misses
system.cpu.dcache.overall_mshr_misses::total      2446698                       # number of overall MSHR misses
system.cpu.dcache.overall_mshr_uncacheable_misses::.cpu.data          983                       # number of overall MSHR uncacheable misses
system.cpu.dcache.overall_mshr_uncacheable_misses::total          983                       # number of overall MSHR uncacheable misses
system.cpu.dcache.demand_mshr_miss_latency::.cpu.data 142886924000                       # number of demand (read+write) MSHR miss cycles
system.cpu.dcache.demand_mshr_miss_latency::total 142886924000                       # number of demand (read+write) MSHR miss cycles
system.cpu.dcache.overall_mshr_miss_latency::.cpu.data 142886924000                       # number of overall MSHR miss cycles
system.cpu.dcache.overall_mshr_miss_latency::total 142886924000                       # number of overall MSHR miss cycles
system.cpu.dcache.overall_mshr_uncacheable_latency::.cpu.data     34396500                       # number of overall MSHR uncacheable cycles
system.cpu.dcache.overall_mshr_uncacheable_latency::total     34396500                       # number of overall MSHR uncacheable cycles
system.cpu.dcache.demand_mshr_miss_rate::.cpu.data     0.022154                       # mshr miss rate for demand accesses
system.cpu.dcache.demand_mshr_miss_rate::total     0.022154                       # mshr miss rate for demand accesses
system.cpu.dcache.overall_mshr_miss_rate::.cpu.data     0.022154                       # mshr miss rate for overall accesses
system.cpu.dcache.overall_mshr_miss_rate::total     0.022154                       # mshr miss rate for overall accesses
system.cpu.dcache.demand_avg_mshr_miss_latency::.cpu.data 58399.902236                       # average overall mshr miss latency
system.cpu.dcache.demand_avg_mshr_miss_latency::total 58399.902236                       # average overall mshr miss latency
system.cpu.dcache.overall_avg_mshr_miss_latency::.cpu.data 58399.902236                       # average overall mshr miss latency
system.cpu.dcache.overall_avg_mshr_miss_latency::total 58399.902236                       # average overall mshr miss latency
system.cpu.dcache.overall_avg_mshr_uncacheable_latency::.cpu.data 34991.353001                       # average overall mshr uncacheable latency
system.cpu.dcache.overall_avg_mshr_uncacheable_latency::total 34991.353001                       # average overall mshr uncacheable latency
system.cpu.dcache.replacements                2449416                       # number of replacements
system.cpu.dcache.ReadReq_hits::.cpu.data     75539801                       # number of ReadReq hits
system.cpu.dcache.ReadReq_hits::total        75539801                       # number of ReadReq hits
system.cpu.dcache.ReadReq_misses::.cpu.data      1594796                       # number of ReadReq misses
system.cpu.dcache.ReadReq_misses::total       1594796                       # number of ReadReq misses
system.cpu.dcache.ReadReq_miss_latency::.cpu.data  93037849500                       # number of ReadReq miss cycles
system.cpu.dcache.ReadReq_miss_latency::total  93037849500                       # number of ReadReq miss cycles
system.cpu.dcache.ReadReq_accesses::.cpu.data     77134597                       # number of ReadReq accesses(hits+misses)
system.cpu.dcache.ReadReq_accesses::total     77134597                       # number of ReadReq accesses(hits+misses)
system.cpu.dcache.ReadReq_miss_rate::.cpu.data     0.020675                       # miss rate for ReadReq accesses
system.cpu.dcache.ReadReq_miss_rate::total     0.020675                       # miss rate for ReadReq accesses
system.cpu.dcache.ReadReq_avg_miss_latency::.cpu.data 58338.401589                       # average ReadReq miss latency
system.cpu.dcache.ReadReq_avg_miss_latency::total 58338.401589                       # average ReadReq miss latency
system.cpu.dcache.ReadReq_mshr_hits::.cpu.data        94620                       # number of ReadReq MSHR hits
system.cpu.dcache.ReadReq_mshr_hits::total        94620                       # number of ReadReq MSHR hits
system.cpu.dcache.ReadReq_mshr_misses::.cpu.data      1500176                       # number of ReadReq MSHR misses
system.cpu.dcache.ReadReq_mshr_misses::total      1500176                       # number of ReadReq MSHR misses
system.cpu.dcache.ReadReq_mshr_uncacheable::.cpu.data          207                       # number of ReadReq MSHR uncacheable
system.cpu.dcache.ReadReq_mshr_uncacheable::total          207                       # number of ReadReq MSHR uncacheable
system.cpu.dcache.ReadReq_mshr_miss_latency::.cpu.data  86023457000                       # number of ReadReq MSHR miss cycles
system.cpu.dcache.ReadReq_mshr_miss_latency::total  86023457000                       # number of ReadReq MSHR miss cycles
system.cpu.dcache.ReadReq_mshr_uncacheable_latency::.cpu.data     34396500                       # number of ReadReq MSHR uncacheable cycles
system.cpu.dcache.ReadReq_mshr_uncacheable_latency::total     34396500                       # number of ReadReq MSHR uncacheable cycles
system.cpu.dcache.ReadReq_mshr_miss_rate::.cpu.data     0.019449                       # mshr miss rate for ReadReq accesses
system.cpu.dcache.ReadReq_mshr_miss_rate::total     0.019449                       # mshr miss rate for ReadReq accesses
system.cpu.dcache.ReadReq_avg_mshr_miss_latency::.cpu.data 57342.243177                       # average ReadReq mshr miss latency
system.cpu.dcache.ReadReq_avg_mshr_miss_latency::total 57342.243177                       # average ReadReq mshr miss latency
system.cpu.dcache.ReadReq_avg_mshr_uncacheable_latency::.cpu.data 166166.666667                       # average ReadReq mshr uncacheable latency
system.cpu.dcache.ReadReq_avg_mshr_uncacheable_latency::total 166166.666667                       # average ReadReq mshr uncacheable latency
system.cpu.dcache.WriteReq_hits::.cpu.data     31604146                       # number of WriteReq hits
system.cpu.dcache.WriteReq_hits::total       31604146                       # number of WriteReq hits
system.cpu.dcache.WriteReq_misses::.cpu.data      1703053                       # number of WriteReq misses
system.cpu.dcache.WriteReq_misses::total      1703053                       # number of WriteReq misses
system.cpu.dcache.WriteReq_miss_latency::.cpu.data 105213948500                       # number of WriteReq miss cycles
system.cpu.dcache.WriteReq_miss_latency::total 105213948500                       # number of WriteReq miss cycles
system.cpu.dcache.WriteReq_accesses::.cpu.data     33307199                       # number of WriteReq accesses(hits+misses)
system.cpu.dcache.WriteReq_accesses::total     33307199                       # number of WriteReq accesses(hits+misses)
system.cpu.dcache.WriteReq_miss_rate::.cpu.data     0.051132                       # miss rate for WriteReq accesses
system.cpu.dcache.WriteReq_miss_rate::total     0.051132                       # miss rate for WriteReq accesses
system.cpu.dcache.WriteReq_avg_miss_latency::.cpu.data 61779.609032                       # average WriteReq miss latency
system.cpu.dcache.WriteReq_avg_miss_latency::total 61779.609032                       # average WriteReq miss latency
system.cpu.dcache.WriteReq_mshr_hits::.cpu.data       756531                       # number of WriteReq MSHR hits
system.cpu.dcache.WriteReq_mshr_hits::total       756531                       # number of WriteReq MSHR hits
system.cpu.dcache.WriteReq_mshr_misses::.cpu.data       946522                       # number of WriteReq MSHR misses
system.cpu.dcache.WriteReq_mshr_misses::total       946522                       # number of WriteReq MSHR misses
system.cpu.dcache.WriteReq_mshr_uncacheable::.cpu.data          776                       # number of WriteReq MSHR uncacheable
system.cpu.dcache.WriteReq_mshr_uncacheable::total          776                       # number of WriteReq MSHR uncacheable
system.cpu.dcache.WriteReq_mshr_miss_latency::.cpu.data  56863467000                       # number of WriteReq MSHR miss cycles
system.cpu.dcache.WriteReq_mshr_miss_latency::total  56863467000                       # number of WriteReq MSHR miss cycles
system.cpu.dcache.WriteReq_mshr_miss_rate::.cpu.data     0.028418                       # mshr miss rate for WriteReq accesses
system.cpu.dcache.WriteReq_mshr_miss_rate::total     0.028418                       # mshr miss rate for WriteReq accesses
system.cpu.dcache.WriteReq_avg_mshr_miss_latency::.cpu.data 60076.223268                       # average WriteReq mshr miss latency
system.cpu.dcache.WriteReq_avg_mshr_miss_latency::total 60076.223268                       # average WriteReq mshr miss latency
system.cpu.dcache.LoadLockedReq_hits::.cpu.data        69991                       # number of LoadLockedReq hits
system.cpu.dcache.LoadLockedReq_hits::total        69991                       # number of LoadLockedReq hits
system.cpu.dcache.LoadLockedReq_misses::.cpu.data         2722                       # number of LoadLockedReq misses
system.cpu.dcache.LoadLockedReq_misses::total         2722                       # number of LoadLockedReq misses
system.cpu.dcache.LoadLockedReq_miss_latency::.cpu.data    205600500                       # number of LoadLockedReq miss cycles
system.cpu.dcache.LoadLockedReq_miss_latency::total    205600500                       # number of LoadLockedReq miss cycles
system.cpu.dcache.LoadLockedReq_accesses::.cpu.data        72713                       # number of LoadLockedReq accesses(hits+misses)
system.cpu.dcache.LoadLockedReq_accesses::total        72713                       # number of LoadLockedReq accesses(hits+misses)
system.cpu.dcache.LoadLockedReq_miss_rate::.cpu.data     0.037435                       # miss rate for LoadLockedReq accesses
system.cpu.dcache.LoadLockedReq_miss_rate::total     0.037435                       # miss rate for LoadLockedReq accesses
system.cpu.dcache.LoadLockedReq_avg_miss_latency::.cpu.data 75532.880235                       # average LoadLockedReq miss latency
system.cpu.dcache.LoadLockedReq_avg_miss_latency::total 75532.880235                       # average LoadLockedReq miss latency
system.cpu.dcache.LoadLockedReq_mshr_hits::.cpu.data            1                       # number of LoadLockedReq MSHR hits
system.cpu.dcache.LoadLockedReq_mshr_hits::total            1                       # number of LoadLockedReq MSHR hits
system.cpu.dcache.LoadLockedReq_mshr_misses::.cpu.data         2721                       # number of LoadLockedReq MSHR misses
system.cpu.dcache.LoadLockedReq_mshr_misses::total         2721                       # number of LoadLockedReq MSHR misses
system.cpu.dcache.LoadLockedReq_mshr_miss_latency::.cpu.data    202822500                       # number of LoadLockedReq MSHR miss cycles
system.cpu.dcache.LoadLockedReq_mshr_miss_latency::total    202822500                       # number of LoadLockedReq MSHR miss cycles
system.cpu.dcache.LoadLockedReq_mshr_miss_rate::.cpu.data     0.037421                       # mshr miss rate for LoadLockedReq accesses
system.cpu.dcache.LoadLockedReq_mshr_miss_rate::total     0.037421                       # mshr miss rate for LoadLockedReq accesses
system.cpu.dcache.LoadLockedReq_avg_mshr_miss_latency::.cpu.data 74539.691290                       # average LoadLockedReq mshr miss latency
system.cpu.dcache.LoadLockedReq_avg_mshr_miss_latency::total 74539.691290                       # average LoadLockedReq mshr miss latency
system.cpu.dcache.StoreCondReq_hits::.cpu.data        72623                       # number of StoreCondReq hits
system.cpu.dcache.StoreCondReq_hits::total        72623                       # number of StoreCondReq hits
system.cpu.dcache.StoreCondReq_accesses::.cpu.data        72623                       # number of StoreCondReq accesses(hits+misses)
system.cpu.dcache.StoreCondReq_accesses::total        72623                       # number of StoreCondReq accesses(hits+misses)
system.cpu.dcache.tags.pwrStateResidencyTicks::UNDEFINED 448487446500                       # Cumulative time (in ticks) in various power states
system.cpu.dcache.tags.tagsinuse                 1024                       # Cycle average of tags in use
system.cpu.dcache.tags.total_refs           109993307                       # Total number of references to valid blocks.
system.cpu.dcache.tags.sampled_refs           2450440                       # Sample count of references to valid blocks.
system.cpu.dcache.tags.avg_refs             44.887166                       # Average number of references to valid blocks.
system.cpu.dcache.tags.warmup_cycle                 0                       # Cycle when the warmup percentage was hit.
system.cpu.dcache.tags.occ_blocks::.cpu.data         1024                       # Average occupied blocks per requestor
system.cpu.dcache.tags.occ_percent::.cpu.data            1                       # Average percentage of cache occupancy
system.cpu.dcache.tags.occ_percent::total            1                       # Average percentage of cache occupancy
system.cpu.dcache.tags.occ_task_id_blocks::1024         1024                       # Occupied blocks per task id
system.cpu.dcache.tags.age_task_id_blocks_1024::0           70                       # Occupied blocks per task id
system.cpu.dcache.tags.age_task_id_blocks_1024::1          161                       # Occupied blocks per task id
system.cpu.dcache.tags.age_task_id_blocks_1024::2          518                       # Occupied blocks per task id
system.cpu.dcache.tags.age_task_id_blocks_1024::3          275                       # Occupied blocks per task id
system.cpu.dcache.tags.occ_task_id_percent::1024            1                       # Percentage of cache occupancy per task id
system.cpu.dcache.tags.tag_accesses         223623680                       # Number of tag accesses
system.cpu.dcache.tags.data_accesses        223623680                       # Number of data accesses

---------- End Simulation Statistics   ----------
