Running with AgreeBP
rm: cannot remove 'm5out/cpt.2530009845000': Is a directory
Started: Sun Jan 12 20:16:10 UTC 2020
gem5 Simulator System.  http://gem5.org
gem5 is copyrighted software; use the --copyright option for details.

gem5 compiled Jan 12 2020 19:19:55
gem5 started Jan 12 2020 20:16:10
gem5 executing on final-project-1, pid 7235
command line: ./build/ALPHA/gem5.opt configs/example/fs.py -n 1 --cpu-type=MinorCPU --caches --kernel=vmlinux --script=./benchmarks/scripts/canneal/canneal_1c_simsmall.rcS --bp-type=AgreeBP -r 1 --restore-with-cpu=MinorCPU

Global frequency set at 1000000000000 ticks per second
warn: DRAM device capacity (8192 Mbytes) does not match the address range assigned (512 Mbytes)
info: kernel located at: /home/alvaro/gem5/benchmarks/m5_system_2.0b3/binaries/vmlinux
system.terminal: Listening for connections on port 3456
      0: system.tsunami.io.rtc: Real-time clock set to Thu Jan  1 00:00:00 2009
warn: Breakpoints do not work in Alpha PAL mode.
      See PCEventQueue::doService() in cpu/pc_event.cc.
0: system.remote_gdb: listening for remote gdb on port 7000
**** REAL SIMULATION ****
info: Entering event queue @ 2530009845000.  Starting simulation...
warn: Prefetch instructions in Alpha do not do anything
warn: Prefetch instructions in Alpha do not do anything
warn: Prefetch instructions in Alpha do not do anything
Exiting @ tick 3298405494500 because user interrupt received
Finished: Sun Jan 12 20:46:10 UTC 2020
Took 1800s to complete
