
---------- Begin Simulation Statistics ----------
final_tick                               2541856880500                       # Number of ticks from beginning of simulation (restored from checkpoints and never reset)
host_inst_rate                                 188328                       # Simulator instruction rate (inst/s)
host_mem_usage                                 746816                       # Number of bytes of host memory used
host_op_rate                                   188327                       # Simulator op (including micro ops) rate (op/s)
host_seconds                                    22.27                       # Real time elapsed on the host
host_tick_rate                              531938943                       # Simulator tick rate (ticks/s)
sim_freq                                 1000000000000                       # Frequency of simulated ticks
sim_insts                                     4194296                       # Number of instructions simulated
sim_ops                                       4194296                       # Number of ops (including micro ops) simulated
sim_seconds                                  0.011847                       # Number of seconds simulated
sim_ticks                                 11847035500                       # Number of ticks simulated
system.cpu.branchPred.BTBCorrect                    0                       # Number of correct BTB predictions (this stat may not work properly.
system.cpu.branchPred.BTBHitPct             45.048872                       # BTB Hit Percentage
system.cpu.branchPred.BTBHits                  384193                       # Number of BTB hits
system.cpu.branchPred.BTBLookups               852836                       # Number of BTB lookups
system.cpu.branchPred.RASInCorrect               2402                       # Number of incorrect RAS predictions.
system.cpu.branchPred.condIncorrect             78210                       # Number of conditional branches incorrect
system.cpu.branchPred.condPredicted            805693                       # Number of conditional branches predicted
system.cpu.branchPred.indirectHits              52762                       # Number of indirect target hits.
system.cpu.branchPred.indirectLookups          279064                       # Number of indirect predictor lookups.
system.cpu.branchPred.indirectMisses           226302                       # Number of indirect misses.
system.cpu.branchPred.lookups                  978796                       # Number of BP lookups
system.cpu.branchPred.usedRAS                   64553                       # Number of times the RAS was used to get a target.
system.cpu.branchPredindirectMispredicted        26807                       # Number of mispredicted indirect branches.
system.cpu.committedInsts                     4194296                       # Number of instructions committed
system.cpu.committedOps                       4194296                       # Number of ops (including micro ops) committed
system.cpu.cpi                               5.645864                       # CPI: cycles per instruction
system.cpu.discardedOps                        191614                       # Number of ops (including micro ops) which were discarded before commit
system.cpu.dtb.data_accesses                   606281                       # DTB accesses
system.cpu.dtb.data_acv                           131                       # DTB access violations
system.cpu.dtb.data_hits                      1451495                       # DTB hits
system.cpu.dtb.data_misses                       7699                       # DTB misses
system.cpu.dtb.fetch_accesses                       0                       # ITB accesses
system.cpu.dtb.fetch_acv                            0                       # ITB acv
system.cpu.dtb.fetch_hits                           0                       # ITB hits
system.cpu.dtb.fetch_misses                         0                       # ITB misses
system.cpu.dtb.read_accesses                   404929                       # DTB read accesses
system.cpu.dtb.read_acv                            43                       # DTB read access violations
system.cpu.dtb.read_hits                       849076                       # DTB read hits
system.cpu.dtb.read_misses                       6828                       # DTB read misses
system.cpu.dtb.write_accesses                  201352                       # DTB write accesses
system.cpu.dtb.write_acv                           88                       # DTB write access violations
system.cpu.dtb.write_hits                      602419                       # DTB write hits
system.cpu.dtb.write_misses                       871                       # DTB write misses
system.cpu.fetch2.amo_instructions                  0                       # Number of memory atomic instructions successfully decoded
system.cpu.fetch2.fp_instructions               18042                       # Number of floating point instructions successfully decoded
system.cpu.fetch2.int_instructions            3381526                       # Number of integer instructions successfully decoded
system.cpu.fetch2.load_instructions           1031408                       # Number of memory load instructions successfully decoded
system.cpu.fetch2.store_instructions           661534                       # Number of memory store instructions successfully decoded
system.cpu.fetch2.vec_instructions                  0                       # Number of SIMD instructions successfully decoded
system.cpu.idleCycles                        16739615                       # Total number of cycles that the object has spent stopped
system.cpu.ipc                               0.177121                       # IPC: instructions per cycle
system.cpu.itb.data_accesses                        0                       # DTB accesses
system.cpu.itb.data_acv                             0                       # DTB access violations
system.cpu.itb.data_hits                            0                       # DTB hits
system.cpu.itb.data_misses                          0                       # DTB misses
system.cpu.itb.fetch_accesses                  966978                       # ITB accesses
system.cpu.itb.fetch_acv                          843                       # ITB acv
system.cpu.itb.fetch_hits                      960104                       # ITB hits
system.cpu.itb.fetch_misses                      6874                       # ITB misses
system.cpu.itb.read_accesses                        0                       # DTB read accesses
system.cpu.itb.read_acv                             0                       # DTB read access violations
system.cpu.itb.read_hits                            0                       # DTB read hits
system.cpu.itb.read_misses                          0                       # DTB read misses
system.cpu.itb.write_accesses                       0                       # DTB write accesses
system.cpu.itb.write_acv                            0                       # DTB write access violations
system.cpu.itb.write_hits                           0                       # DTB write hits
system.cpu.itb.write_misses                         0                       # DTB write misses
system.cpu.kern.callpal::swpctx                   574      9.44%      9.44% # number of callpals executed
system.cpu.kern.callpal::tbi                       25      0.41%      9.85% # number of callpals executed
system.cpu.kern.callpal::swpipl                  4218     69.36%     79.21% # number of callpals executed
system.cpu.kern.callpal::rdps                      48      0.79%     80.00% # number of callpals executed
system.cpu.kern.callpal::wrusp                      4      0.07%     80.07% # number of callpals executed
system.cpu.kern.callpal::rdusp                      3      0.05%     80.12% # number of callpals executed
system.cpu.kern.callpal::rti                      896     14.73%     94.85% # number of callpals executed
system.cpu.kern.callpal::callsys                  235      3.86%     98.72% # number of callpals executed
system.cpu.kern.callpal::imb                       78      1.28%    100.00% # number of callpals executed
system.cpu.kern.callpal::total                   6081                       # number of callpals executed
system.cpu.kern.inst.arm                            0                       # number of arm instructions executed
system.cpu.kern.inst.hwrei                      14424                       # number of hwrei instructions executed
system.cpu.kern.inst.quiesce                        9                       # number of quiesce instructions executed
system.cpu.kern.ipl_count::0                     2434     47.44%     47.44% # number of times we switched to this ipl
system.cpu.kern.ipl_count::21                       5      0.10%     47.53% # number of times we switched to this ipl
system.cpu.kern.ipl_count::22                      12      0.23%     47.77% # number of times we switched to this ipl
system.cpu.kern.ipl_count::31                    2680     52.23%    100.00% # number of times we switched to this ipl
system.cpu.kern.ipl_count::total                 5131                       # number of times we switched to this ipl
system.cpu.kern.ipl_good::0                      2421     49.83%     49.83% # number of times we switched to this ipl from a different ipl
system.cpu.kern.ipl_good::21                        5      0.10%     49.93% # number of times we switched to this ipl from a different ipl
system.cpu.kern.ipl_good::22                       12      0.25%     50.17% # number of times we switched to this ipl from a different ipl
system.cpu.kern.ipl_good::31                     2421     49.83%    100.00% # number of times we switched to this ipl from a different ipl
system.cpu.kern.ipl_good::total                  4859                       # number of times we switched to this ipl from a different ipl
system.cpu.kern.ipl_ticks::0              10935937000     92.27%     92.27% # number of cycles we spent at this ipl
system.cpu.kern.ipl_ticks::21                 9080000      0.08%     92.35% # number of cycles we spent at this ipl
system.cpu.kern.ipl_ticks::22                17323500      0.15%     92.50% # number of cycles we spent at this ipl
system.cpu.kern.ipl_ticks::31               889154500      7.50%    100.00% # number of cycles we spent at this ipl
system.cpu.kern.ipl_ticks::total          11851495000                       # number of cycles we spent at this ipl
system.cpu.kern.ipl_used::0                  0.994659                       # fraction of swpipl calls that actually changed the ipl
system.cpu.kern.ipl_used::21                        1                       # fraction of swpipl calls that actually changed the ipl
system.cpu.kern.ipl_used::22                        1                       # fraction of swpipl calls that actually changed the ipl
system.cpu.kern.ipl_used::31                 0.903358                       # fraction of swpipl calls that actually changed the ipl
system.cpu.kern.ipl_used::total              0.946989                       # fraction of swpipl calls that actually changed the ipl
system.cpu.kern.mode_good::kernel                 869                      
system.cpu.kern.mode_good::user                   869                      
system.cpu.kern.mode_good::idle                     0                      
system.cpu.kern.mode_switch::kernel              1470                       # number of protection mode switches
system.cpu.kern.mode_switch::user                 869                       # number of protection mode switches
system.cpu.kern.mode_switch::idle                   0                       # number of protection mode switches
system.cpu.kern.mode_switch_good::kernel     0.591156                       # fraction of useful protection mode switches
system.cpu.kern.mode_switch_good::user              1                       # fraction of useful protection mode switches
system.cpu.kern.mode_switch_good::idle            nan                       # fraction of useful protection mode switches
system.cpu.kern.mode_switch_good::total      0.743053                       # fraction of useful protection mode switches
system.cpu.kern.mode_ticks::kernel         8000788000     67.51%     67.51% # number of ticks spent at the given mode
system.cpu.kern.mode_ticks::user           3850707000     32.49%    100.00% # number of ticks spent at the given mode
system.cpu.kern.mode_ticks::idle                    0      0.00%    100.00% # number of ticks spent at the given mode
system.cpu.kern.swap_context                      574                       # number of times the context was actually changed
system.cpu.numCycles                         23680426                       # number of cpu cycles simulated
system.cpu.numFetchSuspends                         9                       # Number of times Execute suspended instruction fetching
system.cpu.numWorkItemsCompleted                    0                       # number of work items this cpu completed
system.cpu.numWorkItemsStarted                      0                       # number of work items this cpu started
system.cpu.op_class_0::No_OpClass               85388      2.04%      2.04% # Class of committed instruction
system.cpu.op_class_0::IntAlu                 2540531     60.57%     62.61% # Class of committed instruction
system.cpu.op_class_0::IntMult                   3675      0.09%     62.69% # Class of committed instruction
system.cpu.op_class_0::IntDiv                       0      0.00%     62.69% # Class of committed instruction
system.cpu.op_class_0::FloatAdd                  8286      0.20%     62.89% # Class of committed instruction
system.cpu.op_class_0::FloatCmp                     0      0.00%     62.89% # Class of committed instruction
system.cpu.op_class_0::FloatCvt                     0      0.00%     62.89% # Class of committed instruction
system.cpu.op_class_0::FloatMult                    0      0.00%     62.89% # Class of committed instruction
system.cpu.op_class_0::FloatMultAcc                 0      0.00%     62.89% # Class of committed instruction
system.cpu.op_class_0::FloatDiv                  1593      0.04%     62.93% # Class of committed instruction
system.cpu.op_class_0::FloatMisc                    0      0.00%     62.93% # Class of committed instruction
system.cpu.op_class_0::FloatSqrt                    0      0.00%     62.93% # Class of committed instruction
system.cpu.op_class_0::SimdAdd                      0      0.00%     62.93% # Class of committed instruction
system.cpu.op_class_0::SimdAddAcc                   0      0.00%     62.93% # Class of committed instruction
system.cpu.op_class_0::SimdAlu                      0      0.00%     62.93% # Class of committed instruction
system.cpu.op_class_0::SimdCmp                      0      0.00%     62.93% # Class of committed instruction
system.cpu.op_class_0::SimdCvt                      0      0.00%     62.93% # Class of committed instruction
system.cpu.op_class_0::SimdMisc                     0      0.00%     62.93% # Class of committed instruction
system.cpu.op_class_0::SimdMult                     0      0.00%     62.93% # Class of committed instruction
system.cpu.op_class_0::SimdMultAcc                  0      0.00%     62.93% # Class of committed instruction
system.cpu.op_class_0::SimdShift                    0      0.00%     62.93% # Class of committed instruction
system.cpu.op_class_0::SimdShiftAcc                 0      0.00%     62.93% # Class of committed instruction
system.cpu.op_class_0::SimdDiv                      0      0.00%     62.93% # Class of committed instruction
system.cpu.op_class_0::SimdSqrt                     0      0.00%     62.93% # Class of committed instruction
system.cpu.op_class_0::SimdFloatAdd                 0      0.00%     62.93% # Class of committed instruction
system.cpu.op_class_0::SimdFloatAlu                 0      0.00%     62.93% # Class of committed instruction
system.cpu.op_class_0::SimdFloatCmp                 0      0.00%     62.93% # Class of committed instruction
system.cpu.op_class_0::SimdFloatCvt                 0      0.00%     62.93% # Class of committed instruction
system.cpu.op_class_0::SimdFloatDiv                 0      0.00%     62.93% # Class of committed instruction
system.cpu.op_class_0::SimdFloatMisc                0      0.00%     62.93% # Class of committed instruction
system.cpu.op_class_0::SimdFloatMult                0      0.00%     62.93% # Class of committed instruction
system.cpu.op_class_0::SimdFloatMultAcc             0      0.00%     62.93% # Class of committed instruction
system.cpu.op_class_0::SimdFloatSqrt                0      0.00%     62.93% # Class of committed instruction
system.cpu.op_class_0::SimdReduceAdd                0      0.00%     62.93% # Class of committed instruction
system.cpu.op_class_0::SimdReduceAlu                0      0.00%     62.93% # Class of committed instruction
system.cpu.op_class_0::SimdReduceCmp                0      0.00%     62.93% # Class of committed instruction
system.cpu.op_class_0::SimdFloatReduceAdd            0      0.00%     62.93% # Class of committed instruction
system.cpu.op_class_0::SimdFloatReduceCmp            0      0.00%     62.93% # Class of committed instruction
system.cpu.op_class_0::SimdAes                      0      0.00%     62.93% # Class of committed instruction
system.cpu.op_class_0::SimdAesMix                   0      0.00%     62.93% # Class of committed instruction
system.cpu.op_class_0::SimdSha1Hash                 0      0.00%     62.93% # Class of committed instruction
system.cpu.op_class_0::SimdSha1Hash2                0      0.00%     62.93% # Class of committed instruction
system.cpu.op_class_0::SimdSha256Hash               0      0.00%     62.93% # Class of committed instruction
system.cpu.op_class_0::SimdSha256Hash2              0      0.00%     62.93% # Class of committed instruction
system.cpu.op_class_0::SimdShaSigma2                0      0.00%     62.93% # Class of committed instruction
system.cpu.op_class_0::SimdShaSigma3                0      0.00%     62.93% # Class of committed instruction
system.cpu.op_class_0::SimdPredAlu                  0      0.00%     62.93% # Class of committed instruction
system.cpu.op_class_0::MemRead                 838899     20.00%     82.93% # Class of committed instruction
system.cpu.op_class_0::MemWrite                592305     14.12%     97.05% # Class of committed instruction
system.cpu.op_class_0::FloatMemRead              9988      0.24%     97.29% # Class of committed instruction
system.cpu.op_class_0::FloatMemWrite             8788      0.21%     97.50% # Class of committed instruction
system.cpu.op_class_0::IprAccess               104843      2.50%    100.00% # Class of committed instruction
system.cpu.op_class_0::InstPrefetch                 0      0.00%    100.00% # Class of committed instruction
system.cpu.op_class_0::total                  4194296                       # Class of committed instruction
system.cpu.quiesceCycles                        13645                       # Total number of cycles that CPU has spent quiesced or waiting for an interrupt
system.cpu.tickCycles                         6940811                       # Number of cycles that the object actually ticked
system.disk0.dma_read_bytes                         0                       # Number of bytes transfered via DMA reads (not PRD).
system.disk0.dma_read_full_pages                    0                       # Number of full page size DMA reads (not PRD).
system.disk0.dma_read_txs                           0                       # Number of DMA read transactions (not PRD).
system.disk0.dma_write_bytes                    12288                       # Number of bytes transfered via DMA writes.
system.disk0.dma_write_full_pages                   0                       # Number of full page size DMA writes.
system.disk0.dma_write_txs                          3                       # Number of DMA write transactions.
system.disk2.dma_read_bytes                         0                       # Number of bytes transfered via DMA reads (not PRD).
system.disk2.dma_read_full_pages                    0                       # Number of full page size DMA reads (not PRD).
system.disk2.dma_read_txs                           0                       # Number of DMA read transactions (not PRD).
system.disk2.dma_write_bytes                        0                       # Number of bytes transfered via DMA writes.
system.disk2.dma_write_full_pages                   0                       # Number of full page size DMA writes.
system.disk2.dma_write_txs                          0                       # Number of DMA write transactions.
system.membus.snoop_filter.hit_multi_requests          443                       # Number of requests hitting in the snoop filter with multiple (>1) holders of the requested data.
system.membus.snoop_filter.hit_multi_snoops            0                       # Number of snoops hitting in the snoop filter with multiple (>1) holders of the requested data.
system.membus.snoop_filter.hit_single_requests       155656                       # Number of requests hitting in the snoop filter with a single holder of the requested data.
system.membus.snoop_filter.hit_single_snoops            0                       # Number of snoops hitting in the snoop filter with a single holder of the requested data.
system.membus.snoop_filter.tot_requests        312919                       # Total number of requests made to the snoop filter.
system.membus.snoop_filter.tot_snoops               0                       # Total number of snoops made to the snoop filter.
system.tsunami.ethernet.coalescedRxDesc           nan                       # average number of RxDesc's coalesced into each post
system.tsunami.ethernet.coalescedRxIdle           nan                       # average number of RxIdle's coalesced into each post
system.tsunami.ethernet.coalescedRxOk             nan                       # average number of RxOk's coalesced into each post
system.tsunami.ethernet.coalescedRxOrn            nan                       # average number of RxOrn's coalesced into each post
system.tsunami.ethernet.coalescedSwi              nan                       # average number of Swi's coalesced into each post
system.tsunami.ethernet.coalescedTotal            nan                       # average number of interrupts coalesced into each post
system.tsunami.ethernet.coalescedTxDesc           nan                       # average number of TxDesc's coalesced into each post
system.tsunami.ethernet.coalescedTxIdle           nan                       # average number of TxIdle's coalesced into each post
system.tsunami.ethernet.coalescedTxOk             nan                       # average number of TxOk's coalesced into each post
system.tsunami.ethernet.descDMAReads                0                       # Number of descriptors the device read w/ DMA
system.tsunami.ethernet.descDMAWrites               0                       # Number of descriptors the device wrote w/ DMA
system.tsunami.ethernet.descDmaReadBytes            0                       # number of descriptor bytes read w/ DMA
system.tsunami.ethernet.descDmaWriteBytes            0                       # number of descriptor bytes write w/ DMA
system.tsunami.ethernet.droppedPackets              0                       # number of packets dropped
system.tsunami.ethernet.postedInterrupts            0                       # number of posts to CPU
system.tsunami.ethernet.postedRxDesc                0                       # number of RxDesc interrupts posted to CPU
system.tsunami.ethernet.postedRxIdle                0                       # number of rxIdle interrupts posted to CPU
system.tsunami.ethernet.postedRxOk                  0                       # number of RxOk interrupts posted to CPU
system.tsunami.ethernet.postedRxOrn                 0                       # number of RxOrn posted to CPU
system.tsunami.ethernet.postedSwi                   0                       # number of software interrupts posted to CPU
system.tsunami.ethernet.postedTxDesc                0                       # number of TxDesc interrupts posted to CPU
system.tsunami.ethernet.postedTxIdle                0                       # number of TxIdle interrupts posted to CPU
system.tsunami.ethernet.postedTxOk                  0                       # number of TxOk interrupts posted to CPU
system.tsunami.ethernet.totalRxDesc                 0                       # total number of RxDesc written to ISR
system.tsunami.ethernet.totalRxIdle                 0                       # total number of RxIdle written to ISR
system.tsunami.ethernet.totalRxOk                   0                       # total number of RxOk written to ISR
system.tsunami.ethernet.totalRxOrn                  0                       # total number of RxOrn written to ISR
system.tsunami.ethernet.totalSwi                    0                       # total number of Swi written to ISR
system.tsunami.ethernet.totalTxDesc                 0                       # total number of TxDesc written to ISR
system.tsunami.ethernet.totalTxIdle                 0                       # total number of TxIdle written to ISR
system.tsunami.ethernet.totalTxOk                   0                       # total number of TxOk written to ISR
system.bridge.pwrStateResidencyTicks::UNDEFINED 2541856880500                       # Cumulative time (in ticks) in various power states
system.voltage_domain.voltage                       1                       # Voltage in Volts
system.iocache.pwrStateResidencyTicks::UNDEFINED 2541856880500                       # Cumulative time (in ticks) in various power states
system.iocache.demand_misses::.tsunami.ide          195                       # number of demand (read+write) misses
system.iocache.demand_misses::total               195                       # number of demand (read+write) misses
system.iocache.overall_misses::.tsunami.ide          195                       # number of overall misses
system.iocache.overall_misses::total              195                       # number of overall misses
system.iocache.demand_miss_latency::.tsunami.ide     22783456                       # number of demand (read+write) miss cycles
system.iocache.demand_miss_latency::total     22783456                       # number of demand (read+write) miss cycles
system.iocache.overall_miss_latency::.tsunami.ide     22783456                       # number of overall miss cycles
system.iocache.overall_miss_latency::total     22783456                       # number of overall miss cycles
system.iocache.demand_accesses::.tsunami.ide          195                       # number of demand (read+write) accesses
system.iocache.demand_accesses::total             195                       # number of demand (read+write) accesses
system.iocache.overall_accesses::.tsunami.ide          195                       # number of overall (read+write) accesses
system.iocache.overall_accesses::total            195                       # number of overall (read+write) accesses
system.iocache.demand_miss_rate::.tsunami.ide            1                       # miss rate for demand accesses
system.iocache.demand_miss_rate::total              1                       # miss rate for demand accesses
system.iocache.overall_miss_rate::.tsunami.ide            1                       # miss rate for overall accesses
system.iocache.overall_miss_rate::total             1                       # miss rate for overall accesses
system.iocache.demand_avg_miss_latency::.tsunami.ide 116838.235897                       # average overall miss latency
system.iocache.demand_avg_miss_latency::total 116838.235897                       # average overall miss latency
system.iocache.overall_avg_miss_latency::.tsunami.ide 116838.235897                       # average overall miss latency
system.iocache.overall_avg_miss_latency::total 116838.235897                       # average overall miss latency
system.iocache.blocked_cycles::no_mshrs             0                       # number of cycles access was blocked
system.iocache.blocked_cycles::no_targets            0                       # number of cycles access was blocked
system.iocache.blocked::no_mshrs                    0                       # number of cycles access was blocked
system.iocache.blocked::no_targets                  0                       # number of cycles access was blocked
system.iocache.avg_blocked_cycles::no_mshrs          nan                       # average number of cycles each access was blocked
system.iocache.avg_blocked_cycles::no_targets          nan                       # average number of cycles each access was blocked
system.iocache.writebacks::.writebacks            176                       # number of writebacks
system.iocache.writebacks::total                  176                       # number of writebacks
system.iocache.demand_mshr_misses::.tsunami.ide          195                       # number of demand (read+write) MSHR misses
system.iocache.demand_mshr_misses::total          195                       # number of demand (read+write) MSHR misses
system.iocache.overall_mshr_misses::.tsunami.ide          195                       # number of overall MSHR misses
system.iocache.overall_mshr_misses::total          195                       # number of overall MSHR misses
system.iocache.demand_mshr_miss_latency::.tsunami.ide     13020490                       # number of demand (read+write) MSHR miss cycles
system.iocache.demand_mshr_miss_latency::total     13020490                       # number of demand (read+write) MSHR miss cycles
system.iocache.overall_mshr_miss_latency::.tsunami.ide     13020490                       # number of overall MSHR miss cycles
system.iocache.overall_mshr_miss_latency::total     13020490                       # number of overall MSHR miss cycles
system.iocache.demand_mshr_miss_rate::.tsunami.ide            1                       # mshr miss rate for demand accesses
system.iocache.demand_mshr_miss_rate::total            1                       # mshr miss rate for demand accesses
system.iocache.overall_mshr_miss_rate::.tsunami.ide            1                       # mshr miss rate for overall accesses
system.iocache.overall_mshr_miss_rate::total            1                       # mshr miss rate for overall accesses
system.iocache.demand_avg_mshr_miss_latency::.tsunami.ide 66771.743590                       # average overall mshr miss latency
system.iocache.demand_avg_mshr_miss_latency::total 66771.743590                       # average overall mshr miss latency
system.iocache.overall_avg_mshr_miss_latency::.tsunami.ide 66771.743590                       # average overall mshr miss latency
system.iocache.overall_avg_mshr_miss_latency::total 66771.743590                       # average overall mshr miss latency
system.iocache.replacements                       179                       # number of replacements
system.iocache.ReadReq_misses::.tsunami.ide            3                       # number of ReadReq misses
system.iocache.ReadReq_misses::total                3                       # number of ReadReq misses
system.iocache.ReadReq_miss_latency::.tsunami.ide       349497                       # number of ReadReq miss cycles
system.iocache.ReadReq_miss_latency::total       349497                       # number of ReadReq miss cycles
system.iocache.ReadReq_accesses::.tsunami.ide            3                       # number of ReadReq accesses(hits+misses)
system.iocache.ReadReq_accesses::total              3                       # number of ReadReq accesses(hits+misses)
system.iocache.ReadReq_miss_rate::.tsunami.ide            1                       # miss rate for ReadReq accesses
system.iocache.ReadReq_miss_rate::total             1                       # miss rate for ReadReq accesses
system.iocache.ReadReq_avg_miss_latency::.tsunami.ide       116499                       # average ReadReq miss latency
system.iocache.ReadReq_avg_miss_latency::total       116499                       # average ReadReq miss latency
system.iocache.ReadReq_mshr_misses::.tsunami.ide            3                       # number of ReadReq MSHR misses
system.iocache.ReadReq_mshr_misses::total            3                       # number of ReadReq MSHR misses
system.iocache.ReadReq_mshr_miss_latency::.tsunami.ide       199497                       # number of ReadReq MSHR miss cycles
system.iocache.ReadReq_mshr_miss_latency::total       199497                       # number of ReadReq MSHR miss cycles
system.iocache.ReadReq_mshr_miss_rate::.tsunami.ide            1                       # mshr miss rate for ReadReq accesses
system.iocache.ReadReq_mshr_miss_rate::total            1                       # mshr miss rate for ReadReq accesses
system.iocache.ReadReq_avg_mshr_miss_latency::.tsunami.ide        66499                       # average ReadReq mshr miss latency
system.iocache.ReadReq_avg_mshr_miss_latency::total        66499                       # average ReadReq mshr miss latency
system.iocache.WriteLineReq_misses::.tsunami.ide          192                       # number of WriteLineReq misses
system.iocache.WriteLineReq_misses::total          192                       # number of WriteLineReq misses
system.iocache.WriteLineReq_miss_latency::.tsunami.ide     22433959                       # number of WriteLineReq miss cycles
system.iocache.WriteLineReq_miss_latency::total     22433959                       # number of WriteLineReq miss cycles
system.iocache.WriteLineReq_accesses::.tsunami.ide          192                       # number of WriteLineReq accesses(hits+misses)
system.iocache.WriteLineReq_accesses::total          192                       # number of WriteLineReq accesses(hits+misses)
system.iocache.WriteLineReq_miss_rate::.tsunami.ide            1                       # miss rate for WriteLineReq accesses
system.iocache.WriteLineReq_miss_rate::total            1                       # miss rate for WriteLineReq accesses
system.iocache.WriteLineReq_avg_miss_latency::.tsunami.ide 116843.536458                       # average WriteLineReq miss latency
system.iocache.WriteLineReq_avg_miss_latency::total 116843.536458                       # average WriteLineReq miss latency
system.iocache.WriteLineReq_mshr_misses::.tsunami.ide          192                       # number of WriteLineReq MSHR misses
system.iocache.WriteLineReq_mshr_misses::total          192                       # number of WriteLineReq MSHR misses
system.iocache.WriteLineReq_mshr_miss_latency::.tsunami.ide     12820993                       # number of WriteLineReq MSHR miss cycles
system.iocache.WriteLineReq_mshr_miss_latency::total     12820993                       # number of WriteLineReq MSHR miss cycles
system.iocache.WriteLineReq_mshr_miss_rate::.tsunami.ide            1                       # mshr miss rate for WriteLineReq accesses
system.iocache.WriteLineReq_mshr_miss_rate::total            1                       # mshr miss rate for WriteLineReq accesses
system.iocache.WriteLineReq_avg_mshr_miss_latency::.tsunami.ide 66776.005208                       # average WriteLineReq mshr miss latency
system.iocache.WriteLineReq_avg_mshr_miss_latency::total 66776.005208                       # average WriteLineReq mshr miss latency
system.iocache.tags.pwrStateResidencyTicks::UNDEFINED 2541856880500                       # Cumulative time (in ticks) in various power states
system.iocache.tags.tagsinuse                3.260685                       # Cycle average of tags in use
system.iocache.tags.total_refs                    179                       # Total number of references to valid blocks.
system.iocache.tags.sampled_refs                  179                       # Sample count of references to valid blocks.
system.iocache.tags.avg_refs                        1                       # Average number of references to valid blocks.
system.iocache.tags.warmup_cycle         2539441462000                       # Cycle when the warmup percentage was hit.
system.iocache.tags.occ_blocks::.tsunami.ide     3.260685                       # Average occupied blocks per requestor
system.iocache.tags.occ_percent::.tsunami.ide     0.203793                       # Average percentage of cache occupancy
system.iocache.tags.occ_percent::total       0.203793                       # Average percentage of cache occupancy
system.iocache.tags.occ_task_id_blocks::1023           16                       # Occupied blocks per task id
system.iocache.tags.age_task_id_blocks_1023::3           16                       # Occupied blocks per task id
system.iocache.tags.occ_task_id_percent::1023            1                       # Percentage of cache occupancy per task id
system.iocache.tags.tag_accesses                 1755                       # Number of tag accesses
system.iocache.tags.data_accesses                1755                       # Number of data accesses
system.membus.pwrStateResidencyTicks::UNDEFINED 2541856880500                       # Cumulative time (in ticks) in various power states
system.membus.trans_dist::ReadReq                 108                       # Transaction distribution
system.membus.trans_dist::ReadResp             128166                       # Transaction distribution
system.membus.trans_dist::WriteReq                 99                       # Transaction distribution
system.membus.trans_dist::WriteResp                99                       # Transaction distribution
system.membus.trans_dist::WritebackDirty        34849                       # Transaction distribution
system.membus.trans_dist::WritebackClean        86597                       # Transaction distribution
system.membus.trans_dist::CleanEvict            34189                       # Transaction distribution
system.membus.trans_dist::UpgradeReq               16                       # Transaction distribution
system.membus.trans_dist::ReadExReq             29015                       # Transaction distribution
system.membus.trans_dist::ReadExResp            29015                       # Transaction distribution
system.membus.trans_dist::ReadCleanReq          87187                       # Transaction distribution
system.membus.trans_dist::ReadSharedReq         40874                       # Transaction distribution
system.membus.trans_dist::BadAddressError            3                       # Transaction distribution
system.membus.trans_dist::InvalidateReq           192                       # Transaction distribution
system.membus.pkt_count_system.iocache.mem_side::system.mem_ctrls.port          374                       # Packet count per connected master and slave (bytes)
system.membus.pkt_count_system.iocache.mem_side::total          374                       # Packet count per connected master and slave (bytes)
system.membus.pkt_count_system.cpu.icache.mem_side::system.mem_ctrls.port       260906                       # Packet count per connected master and slave (bytes)
system.membus.pkt_count_system.cpu.icache.mem_side::total       260906                       # Packet count per connected master and slave (bytes)
system.membus.pkt_count_system.cpu.dcache.mem_side::system.bridge.slave          414                       # Packet count per connected master and slave (bytes)
system.membus.pkt_count_system.cpu.dcache.mem_side::system.mem_ctrls.port       208641                       # Packet count per connected master and slave (bytes)
system.membus.pkt_count_system.cpu.dcache.mem_side::system.membus.badaddr_responder.pio            6                       # Packet count per connected master and slave (bytes)
system.membus.pkt_count_system.cpu.dcache.mem_side::total       209061                       # Packet count per connected master and slave (bytes)
system.membus.pkt_count::total                 470341                       # Packet count per connected master and slave (bytes)
system.membus.pkt_size_system.iocache.mem_side::system.mem_ctrls.port        11264                       # Cumulative packet size per connected master and slave (bytes)
system.membus.pkt_size_system.iocache.mem_side::total        11264                       # Cumulative packet size per connected master and slave (bytes)
system.membus.pkt_size_system.cpu.icache.mem_side::system.mem_ctrls.port     11118016                       # Cumulative packet size per connected master and slave (bytes)
system.membus.pkt_size_system.cpu.icache.mem_side::total     11118016                       # Cumulative packet size per connected master and slave (bytes)
system.membus.pkt_size_system.cpu.dcache.mem_side::system.bridge.slave          433                       # Cumulative packet size per connected master and slave (bytes)
system.membus.pkt_size_system.cpu.dcache.mem_side::system.mem_ctrls.port      6691584                       # Cumulative packet size per connected master and slave (bytes)
system.membus.pkt_size_system.cpu.dcache.mem_side::total      6692017                       # Cumulative packet size per connected master and slave (bytes)
system.membus.pkt_size::total                17821297                       # Cumulative packet size per connected master and slave (bytes)
system.membus.snoops                               68                       # Total snoops (count)
system.membus.snoopTraffic                       4352                       # Total snoop traffic (bytes)
system.membus.snoop_fanout::samples            157491                       # Request fanout histogram
system.membus.snoop_fanout::mean             0.002826                       # Request fanout histogram
system.membus.snoop_fanout::stdev            0.053081                       # Request fanout histogram
system.membus.snoop_fanout::underflows              0      0.00%      0.00% # Request fanout histogram
system.membus.snoop_fanout::0                  157046     99.72%     99.72% # Request fanout histogram
system.membus.snoop_fanout::1                     445      0.28%    100.00% # Request fanout histogram
system.membus.snoop_fanout::2                       0      0.00%    100.00% # Request fanout histogram
system.membus.snoop_fanout::3                       0      0.00%    100.00% # Request fanout histogram
system.membus.snoop_fanout::overflows               0      0.00%    100.00% # Request fanout histogram
system.membus.snoop_fanout::min_value               0                       # Request fanout histogram
system.membus.snoop_fanout::max_value               1                       # Request fanout histogram
system.membus.snoop_fanout::total              157491                       # Request fanout histogram
system.membus.reqLayer0.occupancy              350500                       # Layer occupancy (ticks)
system.membus.reqLayer0.utilization               0.0                       # Layer utilization (%)
system.membus.reqLayer1.occupancy           821123037                       # Layer occupancy (ticks)
system.membus.reqLayer1.utilization               6.9                       # Layer utilization (%)
system.membus.reqLayer2.occupancy                4500                       # Layer occupancy (ticks)
system.membus.reqLayer2.utilization               0.0                       # Layer utilization (%)
system.membus.respLayer1.occupancy              17997                       # Layer occupancy (ticks)
system.membus.respLayer1.utilization              0.0                       # Layer utilization (%)
system.membus.respLayer3.occupancy          375908750                       # Layer occupancy (ticks)
system.membus.respLayer3.utilization              3.2                       # Layer utilization (%)
system.membus.badaddr_responder.pwrStateResidencyTicks::UNDEFINED 2541856880500                       # Cumulative time (in ticks) in various power states
system.membus.respLayer2.occupancy          462329500                       # Layer occupancy (ticks)
system.membus.respLayer2.utilization              3.9                       # Layer utilization (%)
system.clk_domain.clock                          1000                       # Clock period in ticks
system.tsunami.fake_uart1.pwrStateResidencyTicks::UNDEFINED 2541856880500                       # Cumulative time (in ticks) in various power states
system.tsunami.fake_uart2.pwrStateResidencyTicks::UNDEFINED 2541856880500                       # Cumulative time (in ticks) in various power states
system.tsunami.fake_uart3.pwrStateResidencyTicks::UNDEFINED 2541856880500                       # Cumulative time (in ticks) in various power states
system.tsunami.fake_uart4.pwrStateResidencyTicks::UNDEFINED 2541856880500                       # Cumulative time (in ticks) in various power states
system.tsunami.fake_ppc.pwrStateResidencyTicks::UNDEFINED 2541856880500                       # Cumulative time (in ticks) in various power states
system.tsunami.cchip.pwrStateResidencyTicks::UNDEFINED 2541856880500                       # Cumulative time (in ticks) in various power states
system.tsunami.io.pwrStateResidencyTicks::UNDEFINED 2541856880500                       # Cumulative time (in ticks) in various power states
system.tsunami.pchip.pwrStateResidencyTicks::UNDEFINED 2541856880500                       # Cumulative time (in ticks) in various power states
system.tsunami.fake_ata1.pwrStateResidencyTicks::UNDEFINED 2541856880500                       # Cumulative time (in ticks) in various power states
system.tsunami.fake_ata0.pwrStateResidencyTicks::UNDEFINED 2541856880500                       # Cumulative time (in ticks) in various power states
system.tsunami.backdoor.pwrStateResidencyTicks::UNDEFINED 2541856880500                       # Cumulative time (in ticks) in various power states
system.tsunami.fake_pnp_read3.pwrStateResidencyTicks::UNDEFINED 2541856880500                       # Cumulative time (in ticks) in various power states
system.tsunami.fake_pnp_read2.pwrStateResidencyTicks::UNDEFINED 2541856880500                       # Cumulative time (in ticks) in various power states
system.tsunami.fake_pnp_read1.pwrStateResidencyTicks::UNDEFINED 2541856880500                       # Cumulative time (in ticks) in various power states
system.tsunami.fake_pnp_read0.pwrStateResidencyTicks::UNDEFINED 2541856880500                       # Cumulative time (in ticks) in various power states
system.tsunami.fake_pnp_read7.pwrStateResidencyTicks::UNDEFINED 2541856880500                       # Cumulative time (in ticks) in various power states
system.tsunami.fake_pnp_read6.pwrStateResidencyTicks::UNDEFINED 2541856880500                       # Cumulative time (in ticks) in various power states
system.tsunami.fake_pnp_read5.pwrStateResidencyTicks::UNDEFINED 2541856880500                       # Cumulative time (in ticks) in various power states
system.tsunami.fake_pnp_read4.pwrStateResidencyTicks::UNDEFINED 2541856880500                       # Cumulative time (in ticks) in various power states
system.tsunami.fake_pnp_write.pwrStateResidencyTicks::UNDEFINED 2541856880500                       # Cumulative time (in ticks) in various power states
system.tsunami.fb.pwrStateResidencyTicks::UNDEFINED 2541856880500                       # Cumulative time (in ticks) in various power states
system.tsunami.fake_pnp_addr.pwrStateResidencyTicks::UNDEFINED 2541856880500                       # Cumulative time (in ticks) in various power states
system.tsunami.fake_OROM.pwrStateResidencyTicks::UNDEFINED 2541856880500                       # Cumulative time (in ticks) in various power states
system.tsunami.uart.pwrStateResidencyTicks::UNDEFINED 2541856880500                       # Cumulative time (in ticks) in various power states
system.tsunami.fake_sm_chip.pwrStateResidencyTicks::UNDEFINED 2541856880500                       # Cumulative time (in ticks) in various power states
system.tsunami.ethernet.pwrStateResidencyTicks::UNDEFINED 2541856880500                       # Cumulative time (in ticks) in various power states
system.tsunami.ide.pwrStateResidencyTicks::UNDEFINED 2541856880500                       # Cumulative time (in ticks) in various power states
system.cpu_voltage_domain.voltage                   1                       # Voltage in Volts
system.mem_ctrls.pwrStateResidencyTicks::UNDEFINED 2541856880500                       # Cumulative time (in ticks) in various power states
system.mem_ctrls.bytes_read::.cpu.inst        5575808                       # Number of bytes read from this memory
system.mem_ctrls.bytes_read::.cpu.data        4472512                       # Number of bytes read from this memory
system.mem_ctrls.bytes_read::total           10048320                       # Number of bytes read from this memory
system.mem_ctrls.bytes_inst_read::.cpu.inst      5575808                       # Number of instructions bytes read from this memory
system.mem_ctrls.bytes_inst_read::total       5575808                       # Number of instructions bytes read from this memory
system.mem_ctrls.bytes_written::.writebacks      2230336                       # Number of bytes written to this memory
system.mem_ctrls.bytes_written::total         2230336                       # Number of bytes written to this memory
system.mem_ctrls.num_reads::.cpu.inst           87122                       # Number of read requests responded to by this memory
system.mem_ctrls.num_reads::.cpu.data           69883                       # Number of read requests responded to by this memory
system.mem_ctrls.num_reads::total              157005                       # Number of read requests responded to by this memory
system.mem_ctrls.num_writes::.writebacks        34849                       # Number of write requests responded to by this memory
system.mem_ctrls.num_writes::total              34849                       # Number of write requests responded to by this memory
system.mem_ctrls.bw_read::.cpu.inst         470650063                       # Total read bandwidth from this memory (bytes/s)
system.mem_ctrls.bw_read::.cpu.data         377521617                       # Total read bandwidth from this memory (bytes/s)
system.mem_ctrls.bw_read::total             848171680                       # Total read bandwidth from this memory (bytes/s)
system.mem_ctrls.bw_inst_read::.cpu.inst    470650063                       # Instruction read bandwidth from this memory (bytes/s)
system.mem_ctrls.bw_inst_read::total        470650063                       # Instruction read bandwidth from this memory (bytes/s)
system.mem_ctrls.bw_write::.writebacks      188261105                       # Write bandwidth from this memory (bytes/s)
system.mem_ctrls.bw_write::total            188261105                       # Write bandwidth from this memory (bytes/s)
system.mem_ctrls.bw_total::.writebacks      188261105                       # Total bandwidth to/from this memory (bytes/s)
system.mem_ctrls.bw_total::.cpu.inst        470650063                       # Total bandwidth to/from this memory (bytes/s)
system.mem_ctrls.bw_total::.cpu.data        377521617                       # Total bandwidth to/from this memory (bytes/s)
system.mem_ctrls.bw_total::total           1036432785                       # Total bandwidth to/from this memory (bytes/s)
system.mem_ctrls.avgPriority_.writebacks::samples    119067.00                       # Average QoS priority value for accepted requests
system.mem_ctrls.avgPriority_.cpu.inst::samples     77399.00                       # Average QoS priority value for accepted requests
system.mem_ctrls.avgPriority_.cpu.data::samples     69388.00                       # Average QoS priority value for accepted requests
system.mem_ctrls.priorityMinLatency      0.000000018750                       # per QoS priority minimum request to response latency (s)
system.mem_ctrls.priorityMaxLatency      0.000206554500                       # per QoS priority maximum request to response latency (s)
system.mem_ctrls.numReadWriteTurnArounds         7328                       # Number of turnarounds from READ to WRITE
system.mem_ctrls.numWriteReadTurnArounds         7328                       # Number of turnarounds from WRITE to READ
system.mem_ctrls.numStayReadState              407014                       # Number of times bus staying in READ state
system.mem_ctrls.numStayWriteState             111814                       # Number of times bus staying in WRITE state
system.mem_ctrls.readReqs                      157005                       # Number of read requests accepted
system.mem_ctrls.writeReqs                     121225                       # Number of write requests accepted
system.mem_ctrls.readBursts                    157005                       # Number of DRAM read bursts, including those serviced by the write queue
system.mem_ctrls.writeBursts                   121225                       # Number of DRAM write bursts, including those merged in the write queue
system.mem_ctrls.servicedByWrQ                  10218                       # Number of DRAM read bursts serviced by the write queue
system.mem_ctrls.mergedWrBursts                  2158                       # Number of DRAM write bursts merged with an existing one
system.mem_ctrls.neitherReadNorWriteReqs            0                       # Number of requests that are neither read nor write
system.mem_ctrls.perBankRdBursts::0              8761                       # Per bank write bursts
system.mem_ctrls.perBankRdBursts::1              6633                       # Per bank write bursts
system.mem_ctrls.perBankRdBursts::2              9914                       # Per bank write bursts
system.mem_ctrls.perBankRdBursts::3              7157                       # Per bank write bursts
system.mem_ctrls.perBankRdBursts::4              8516                       # Per bank write bursts
system.mem_ctrls.perBankRdBursts::5             10082                       # Per bank write bursts
system.mem_ctrls.perBankRdBursts::6              8519                       # Per bank write bursts
system.mem_ctrls.perBankRdBursts::7              8710                       # Per bank write bursts
system.mem_ctrls.perBankRdBursts::8             11828                       # Per bank write bursts
system.mem_ctrls.perBankRdBursts::9              9262                       # Per bank write bursts
system.mem_ctrls.perBankRdBursts::10            10653                       # Per bank write bursts
system.mem_ctrls.perBankRdBursts::11            11994                       # Per bank write bursts
system.mem_ctrls.perBankRdBursts::12             8848                       # Per bank write bursts
system.mem_ctrls.perBankRdBursts::13            13523                       # Per bank write bursts
system.mem_ctrls.perBankRdBursts::14             5525                       # Per bank write bursts
system.mem_ctrls.perBankRdBursts::15             6862                       # Per bank write bursts
system.mem_ctrls.perBankWrBursts::0              7052                       # Per bank write bursts
system.mem_ctrls.perBankWrBursts::1              4455                       # Per bank write bursts
system.mem_ctrls.perBankWrBursts::2              8595                       # Per bank write bursts
system.mem_ctrls.perBankWrBursts::3              7976                       # Per bank write bursts
system.mem_ctrls.perBankWrBursts::4              7686                       # Per bank write bursts
system.mem_ctrls.perBankWrBursts::5              9886                       # Per bank write bursts
system.mem_ctrls.perBankWrBursts::6              7293                       # Per bank write bursts
system.mem_ctrls.perBankWrBursts::7              6895                       # Per bank write bursts
system.mem_ctrls.perBankWrBursts::8             10558                       # Per bank write bursts
system.mem_ctrls.perBankWrBursts::9              8409                       # Per bank write bursts
system.mem_ctrls.perBankWrBursts::10             7901                       # Per bank write bursts
system.mem_ctrls.perBankWrBursts::11             8048                       # Per bank write bursts
system.mem_ctrls.perBankWrBursts::12             5447                       # Per bank write bursts
system.mem_ctrls.perBankWrBursts::13             9936                       # Per bank write bursts
system.mem_ctrls.perBankWrBursts::14             3172                       # Per bank write bursts
system.mem_ctrls.perBankWrBursts::15             5734                       # Per bank write bursts
system.mem_ctrls.avgRdQLen                       1.09                       # Average read queue length when enqueuing
system.mem_ctrls.avgWrQLen                      25.74                       # Average write queue length when enqueuing
system.mem_ctrls.totQLat                   2013396000                       # Total ticks spent queuing
system.mem_ctrls.totBusLat                  733935000                       # Total ticks spent in databus transfers
system.mem_ctrls.totMemAccLat              4765652250                       # Total ticks spent from burst creation until serviced by the DRAM
system.mem_ctrls.avgQLat                     13716.45                       # Average queueing delay per DRAM burst
system.mem_ctrls.avgBusLat                    5000.00                       # Average bus latency per DRAM burst
system.mem_ctrls.avgMemAccLat                32466.45                       # Average memory access latency per DRAM burst
system.mem_ctrls.numRdRetry                         0                       # Number of times read queue was full causing retry
system.mem_ctrls.numWrRetry                         0                       # Number of times write queue was full causing retry
system.mem_ctrls.readRowHits                   104020                       # Number of row buffer hits during reads
system.mem_ctrls.writeRowHits                   80357                       # Number of row buffer hits during writes
system.mem_ctrls.readRowHitRate                 70.86                       # Row buffer hit rate for reads
system.mem_ctrls.writeRowHitRate                67.49                       # Row buffer hit rate for writes
system.mem_ctrls.readPktSize::0                     0                       # Read request sizes (log2)
system.mem_ctrls.readPktSize::1                     0                       # Read request sizes (log2)
system.mem_ctrls.readPktSize::2                     0                       # Read request sizes (log2)
system.mem_ctrls.readPktSize::3                     0                       # Read request sizes (log2)
system.mem_ctrls.readPktSize::4                     0                       # Read request sizes (log2)
system.mem_ctrls.readPktSize::5                     0                       # Read request sizes (log2)
system.mem_ctrls.readPktSize::6                157005                       # Read request sizes (log2)
system.mem_ctrls.writePktSize::0                    0                       # Write request sizes (log2)
system.mem_ctrls.writePktSize::1                    0                       # Write request sizes (log2)
system.mem_ctrls.writePktSize::2                    0                       # Write request sizes (log2)
system.mem_ctrls.writePktSize::3                    0                       # Write request sizes (log2)
system.mem_ctrls.writePktSize::4                    0                       # Write request sizes (log2)
system.mem_ctrls.writePktSize::5                    0                       # Write request sizes (log2)
system.mem_ctrls.writePktSize::6               121225                       # Write request sizes (log2)
system.mem_ctrls.rdQLenPdf::0                  134283                       # What read queue length does an incoming req see
system.mem_ctrls.rdQLenPdf::1                   12186                       # What read queue length does an incoming req see
system.mem_ctrls.rdQLenPdf::2                     318                       # What read queue length does an incoming req see
system.mem_ctrls.rdQLenPdf::3                       0                       # What read queue length does an incoming req see
system.mem_ctrls.rdQLenPdf::4                       0                       # What read queue length does an incoming req see
system.mem_ctrls.rdQLenPdf::5                       0                       # What read queue length does an incoming req see
system.mem_ctrls.rdQLenPdf::6                       0                       # What read queue length does an incoming req see
system.mem_ctrls.rdQLenPdf::7                       0                       # What read queue length does an incoming req see
system.mem_ctrls.rdQLenPdf::8                       0                       # What read queue length does an incoming req see
system.mem_ctrls.rdQLenPdf::9                       0                       # What read queue length does an incoming req see
system.mem_ctrls.rdQLenPdf::10                      0                       # What read queue length does an incoming req see
system.mem_ctrls.rdQLenPdf::11                      0                       # What read queue length does an incoming req see
system.mem_ctrls.rdQLenPdf::12                      0                       # What read queue length does an incoming req see
system.mem_ctrls.rdQLenPdf::13                      0                       # What read queue length does an incoming req see
system.mem_ctrls.rdQLenPdf::14                      0                       # What read queue length does an incoming req see
system.mem_ctrls.rdQLenPdf::15                      0                       # What read queue length does an incoming req see
system.mem_ctrls.rdQLenPdf::16                      0                       # What read queue length does an incoming req see
system.mem_ctrls.rdQLenPdf::17                      0                       # What read queue length does an incoming req see
system.mem_ctrls.rdQLenPdf::18                      0                       # What read queue length does an incoming req see
system.mem_ctrls.rdQLenPdf::19                      0                       # What read queue length does an incoming req see
system.mem_ctrls.rdQLenPdf::20                      0                       # What read queue length does an incoming req see
system.mem_ctrls.rdQLenPdf::21                      0                       # What read queue length does an incoming req see
system.mem_ctrls.rdQLenPdf::22                      0                       # What read queue length does an incoming req see
system.mem_ctrls.rdQLenPdf::23                      0                       # What read queue length does an incoming req see
system.mem_ctrls.rdQLenPdf::24                      0                       # What read queue length does an incoming req see
system.mem_ctrls.rdQLenPdf::25                      0                       # What read queue length does an incoming req see
system.mem_ctrls.rdQLenPdf::26                      0                       # What read queue length does an incoming req see
system.mem_ctrls.rdQLenPdf::27                      0                       # What read queue length does an incoming req see
system.mem_ctrls.rdQLenPdf::28                      0                       # What read queue length does an incoming req see
system.mem_ctrls.rdQLenPdf::29                      0                       # What read queue length does an incoming req see
system.mem_ctrls.rdQLenPdf::30                      0                       # What read queue length does an incoming req see
system.mem_ctrls.rdQLenPdf::31                      0                       # What read queue length does an incoming req see
system.mem_ctrls.wrQLenPdf::0                       1                       # What write queue length does an incoming req see
system.mem_ctrls.wrQLenPdf::1                       1                       # What write queue length does an incoming req see
system.mem_ctrls.wrQLenPdf::2                       1                       # What write queue length does an incoming req see
system.mem_ctrls.wrQLenPdf::3                       1                       # What write queue length does an incoming req see
system.mem_ctrls.wrQLenPdf::4                       1                       # What write queue length does an incoming req see
system.mem_ctrls.wrQLenPdf::5                       1                       # What write queue length does an incoming req see
system.mem_ctrls.wrQLenPdf::6                       1                       # What write queue length does an incoming req see
system.mem_ctrls.wrQLenPdf::7                       1                       # What write queue length does an incoming req see
system.mem_ctrls.wrQLenPdf::8                       1                       # What write queue length does an incoming req see
system.mem_ctrls.wrQLenPdf::9                       1                       # What write queue length does an incoming req see
system.mem_ctrls.wrQLenPdf::10                      1                       # What write queue length does an incoming req see
system.mem_ctrls.wrQLenPdf::11                      1                       # What write queue length does an incoming req see
system.mem_ctrls.wrQLenPdf::12                      1                       # What write queue length does an incoming req see
system.mem_ctrls.wrQLenPdf::13                      1                       # What write queue length does an incoming req see
system.mem_ctrls.wrQLenPdf::14                      1                       # What write queue length does an incoming req see
system.mem_ctrls.wrQLenPdf::15                    650                       # What write queue length does an incoming req see
system.mem_ctrls.wrQLenPdf::16                    755                       # What write queue length does an incoming req see
system.mem_ctrls.wrQLenPdf::17                   6728                       # What write queue length does an incoming req see
system.mem_ctrls.wrQLenPdf::18                   7332                       # What write queue length does an incoming req see
system.mem_ctrls.wrQLenPdf::19                   7462                       # What write queue length does an incoming req see
system.mem_ctrls.wrQLenPdf::20                   7414                       # What write queue length does an incoming req see
system.mem_ctrls.wrQLenPdf::21                   7411                       # What write queue length does an incoming req see
system.mem_ctrls.wrQLenPdf::22                   7509                       # What write queue length does an incoming req see
system.mem_ctrls.wrQLenPdf::23                   7408                       # What write queue length does an incoming req see
system.mem_ctrls.wrQLenPdf::24                   7399                       # What write queue length does an incoming req see
system.mem_ctrls.wrQLenPdf::25                   7410                       # What write queue length does an incoming req see
system.mem_ctrls.wrQLenPdf::26                   7438                       # What write queue length does an incoming req see
system.mem_ctrls.wrQLenPdf::27                   7376                       # What write queue length does an incoming req see
system.mem_ctrls.wrQLenPdf::28                   7353                       # What write queue length does an incoming req see
system.mem_ctrls.wrQLenPdf::29                   7353                       # What write queue length does an incoming req see
system.mem_ctrls.wrQLenPdf::30                   7349                       # What write queue length does an incoming req see
system.mem_ctrls.wrQLenPdf::31                   7331                       # What write queue length does an incoming req see
system.mem_ctrls.wrQLenPdf::32                   7333                       # What write queue length does an incoming req see
system.mem_ctrls.wrQLenPdf::33                     23                       # What write queue length does an incoming req see
system.mem_ctrls.wrQLenPdf::34                      9                       # What write queue length does an incoming req see
system.mem_ctrls.wrQLenPdf::35                      6                       # What write queue length does an incoming req see
system.mem_ctrls.wrQLenPdf::36                      3                       # What write queue length does an incoming req see
system.mem_ctrls.wrQLenPdf::37                      0                       # What write queue length does an incoming req see
system.mem_ctrls.wrQLenPdf::38                      0                       # What write queue length does an incoming req see
system.mem_ctrls.wrQLenPdf::39                      0                       # What write queue length does an incoming req see
system.mem_ctrls.wrQLenPdf::40                      0                       # What write queue length does an incoming req see
system.mem_ctrls.wrQLenPdf::41                      0                       # What write queue length does an incoming req see
system.mem_ctrls.wrQLenPdf::42                      0                       # What write queue length does an incoming req see
system.mem_ctrls.wrQLenPdf::43                      0                       # What write queue length does an incoming req see
system.mem_ctrls.wrQLenPdf::44                      0                       # What write queue length does an incoming req see
system.mem_ctrls.wrQLenPdf::45                      0                       # What write queue length does an incoming req see
system.mem_ctrls.wrQLenPdf::46                      0                       # What write queue length does an incoming req see
system.mem_ctrls.wrQLenPdf::47                      0                       # What write queue length does an incoming req see
system.mem_ctrls.wrQLenPdf::48                      0                       # What write queue length does an incoming req see
system.mem_ctrls.wrQLenPdf::49                      0                       # What write queue length does an incoming req see
system.mem_ctrls.wrQLenPdf::50                      0                       # What write queue length does an incoming req see
system.mem_ctrls.wrQLenPdf::51                      0                       # What write queue length does an incoming req see
system.mem_ctrls.wrQLenPdf::52                      0                       # What write queue length does an incoming req see
system.mem_ctrls.wrQLenPdf::53                      0                       # What write queue length does an incoming req see
system.mem_ctrls.wrQLenPdf::54                      0                       # What write queue length does an incoming req see
system.mem_ctrls.wrQLenPdf::55                      0                       # What write queue length does an incoming req see
system.mem_ctrls.wrQLenPdf::56                      0                       # What write queue length does an incoming req see
system.mem_ctrls.wrQLenPdf::57                      0                       # What write queue length does an incoming req see
system.mem_ctrls.wrQLenPdf::58                      0                       # What write queue length does an incoming req see
system.mem_ctrls.wrQLenPdf::59                      0                       # What write queue length does an incoming req see
system.mem_ctrls.wrQLenPdf::60                      0                       # What write queue length does an incoming req see
system.mem_ctrls.wrQLenPdf::61                      0                       # What write queue length does an incoming req see
system.mem_ctrls.wrQLenPdf::62                      0                       # What write queue length does an incoming req see
system.mem_ctrls.wrQLenPdf::63                      0                       # What write queue length does an incoming req see
system.mem_ctrls.bytesPerActivate::samples        81442                       # Bytes accessed per row activation
system.mem_ctrls.bytesPerActivate::mean    208.860097                       # Bytes accessed per row activation
system.mem_ctrls.bytesPerActivate::gmean   140.475114                       # Bytes accessed per row activation
system.mem_ctrls.bytesPerActivate::stdev   225.332274                       # Bytes accessed per row activation
system.mem_ctrls.bytesPerActivate::0-127        34395     42.23%     42.23% # Bytes accessed per row activation
system.mem_ctrls.bytesPerActivate::128-255        24255     29.78%     72.01% # Bytes accessed per row activation
system.mem_ctrls.bytesPerActivate::256-383        10014     12.30%     84.31% # Bytes accessed per row activation
system.mem_ctrls.bytesPerActivate::384-511         4670      5.73%     90.04% # Bytes accessed per row activation
system.mem_ctrls.bytesPerActivate::512-639         2376      2.92%     92.96% # Bytes accessed per row activation
system.mem_ctrls.bytesPerActivate::640-767         1391      1.71%     94.67% # Bytes accessed per row activation
system.mem_ctrls.bytesPerActivate::768-895          922      1.13%     95.80% # Bytes accessed per row activation
system.mem_ctrls.bytesPerActivate::896-1023          591      0.73%     96.53% # Bytes accessed per row activation
system.mem_ctrls.bytesPerActivate::1024-1151         2828      3.47%    100.00% # Bytes accessed per row activation
system.mem_ctrls.bytesPerActivate::total        81442                       # Bytes accessed per row activation
system.mem_ctrls.rdPerTurnAround::samples         7328                       # Reads before turning the bus around for writes
system.mem_ctrls.rdPerTurnAround::mean      20.030022                       # Reads before turning the bus around for writes
system.mem_ctrls.rdPerTurnAround::gmean     18.408241                       # Reads before turning the bus around for writes
system.mem_ctrls.rdPerTurnAround::stdev     12.822200                       # Reads before turning the bus around for writes
system.mem_ctrls.rdPerTurnAround::0-15           1279     17.45%     17.45% # Reads before turning the bus around for writes
system.mem_ctrls.rdPerTurnAround::16-31          5573     76.05%     93.50% # Reads before turning the bus around for writes
system.mem_ctrls.rdPerTurnAround::32-47           291      3.97%     97.48% # Reads before turning the bus around for writes
system.mem_ctrls.rdPerTurnAround::48-63            79      1.08%     98.55% # Reads before turning the bus around for writes
system.mem_ctrls.rdPerTurnAround::64-79            44      0.60%     99.15% # Reads before turning the bus around for writes
system.mem_ctrls.rdPerTurnAround::80-95            20      0.27%     99.43% # Reads before turning the bus around for writes
system.mem_ctrls.rdPerTurnAround::96-111           17      0.23%     99.66% # Reads before turning the bus around for writes
system.mem_ctrls.rdPerTurnAround::112-127            4      0.05%     99.71% # Reads before turning the bus around for writes
system.mem_ctrls.rdPerTurnAround::128-143           11      0.15%     99.86% # Reads before turning the bus around for writes
system.mem_ctrls.rdPerTurnAround::144-159            5      0.07%     99.93% # Reads before turning the bus around for writes
system.mem_ctrls.rdPerTurnAround::160-175            2      0.03%     99.96% # Reads before turning the bus around for writes
system.mem_ctrls.rdPerTurnAround::192-207            1      0.01%     99.97% # Reads before turning the bus around for writes
system.mem_ctrls.rdPerTurnAround::256-271            1      0.01%     99.99% # Reads before turning the bus around for writes
system.mem_ctrls.rdPerTurnAround::400-415            1      0.01%    100.00% # Reads before turning the bus around for writes
system.mem_ctrls.rdPerTurnAround::total          7328                       # Reads before turning the bus around for writes
system.mem_ctrls.wrPerTurnAround::samples         7328                       # Writes before turning the bus around for reads
system.mem_ctrls.wrPerTurnAround::mean      16.244951                       # Writes before turning the bus around for reads
system.mem_ctrls.wrPerTurnAround::gmean     16.228959                       # Writes before turning the bus around for reads
system.mem_ctrls.wrPerTurnAround::stdev      0.755609                       # Writes before turning the bus around for reads
system.mem_ctrls.wrPerTurnAround::16             6534     89.16%     89.16% # Writes before turning the bus around for reads
system.mem_ctrls.wrPerTurnAround::17              108      1.47%     90.64% # Writes before turning the bus around for reads
system.mem_ctrls.wrPerTurnAround::18              441      6.02%     96.66% # Writes before turning the bus around for reads
system.mem_ctrls.wrPerTurnAround::19              187      2.55%     99.21% # Writes before turning the bus around for reads
system.mem_ctrls.wrPerTurnAround::20               53      0.72%     99.93% # Writes before turning the bus around for reads
system.mem_ctrls.wrPerTurnAround::21                3      0.04%     99.97% # Writes before turning the bus around for reads
system.mem_ctrls.wrPerTurnAround::24                1      0.01%     99.99% # Writes before turning the bus around for reads
system.mem_ctrls.wrPerTurnAround::25                1      0.01%    100.00% # Writes before turning the bus around for reads
system.mem_ctrls.wrPerTurnAround::total          7328                       # Writes before turning the bus around for reads
system.mem_ctrls.bytesReadDRAM                9394368                       # Total number of bytes read from DRAM
system.mem_ctrls.bytesReadWrQ                  653952                       # Total number of bytes read from write queue
system.mem_ctrls.bytesWritten                 7618752                       # Total number of bytes written to DRAM
system.mem_ctrls.bytesReadSys                10048320                       # Total read bytes from the system interface side
system.mem_ctrls.bytesWrittenSys              7758400                       # Total written bytes from the system interface side
system.mem_ctrls.avgRdBW                       792.97                       # Average DRAM read bandwidth in MiByte/s
system.mem_ctrls.avgWrBW                       643.09                       # Average achieved write bandwidth in MiByte/s
system.mem_ctrls.avgRdBWSys                    848.17                       # Average system read bandwidth in MiByte/s
system.mem_ctrls.avgWrBWSys                    654.88                       # Average system write bandwidth in MiByte/s
system.mem_ctrls.peakBW                      12800.00                       # Theoretical peak bandwidth in MiByte/s
system.mem_ctrls.busUtil                        11.22                       # Data bus utilization in percentage
system.mem_ctrls.busUtilRead                     6.20                       # Data bus utilization in percentage for reads
system.mem_ctrls.busUtilWrite                    5.02                       # Data bus utilization in percentage for writes
system.mem_ctrls.totGap                   11847030500                       # Total gap between requests
system.mem_ctrls.avgGap                      42579.99                       # Average gap between requests
system.mem_ctrls.masterReadBytes::.cpu.inst      4953536                       # Per-master bytes read from memory
system.mem_ctrls.masterReadBytes::.cpu.data      4440832                       # Per-master bytes read from memory
system.mem_ctrls.masterWriteBytes::.writebacks      7618752                       # Per-master bytes write to memory
[...]
system.cpu.icache.ReadReq_mshr_miss_latency::.cpu.inst  32071240500                       # number of ReadReq MSHR miss cycles
system.cpu.icache.ReadReq_mshr_miss_latency::total  32071240500                       # number of ReadReq MSHR miss cycles
system.cpu.icache.ReadReq_mshr_miss_rate::.cpu.inst     0.006081                       # mshr miss rate for ReadReq accesses
system.cpu.icache.ReadReq_mshr_miss_rate::total     0.006081                       # mshr miss rate for ReadReq accesses
system.cpu.icache.ReadReq_avg_mshr_miss_latency::.cpu.inst 60166.893355                       # average ReadReq mshr miss latency
system.cpu.icache.ReadReq_avg_mshr_miss_latency::total 60166.893355                       # average ReadReq mshr miss latency
system.cpu.icache.tags.pwrStateResidencyTicks::UNDEFINED 308929703000                       # Cumulative time (in ticks) in various power states
system.cpu.icache.tags.tagsinuse                  512                       # Cycle average of tags in use
system.cpu.icache.tags.total_refs            87856732                       # Total number of references to valid blocks.
system.cpu.icache.tags.sampled_refs            533551                       # Sample count of references to valid blocks.
system.cpu.icache.tags.avg_refs            164.664169                       # Average number of references to valid blocks.
system.cpu.icache.tags.warmup_cycle                 0                       # Cycle when the warmup percentage was hit.
system.cpu.icache.tags.occ_blocks::.cpu.inst          512                       # Average occupied blocks per requestor
system.cpu.icache.tags.occ_percent::.cpu.inst            1                       # Average percentage of cache occupancy
system.cpu.icache.tags.occ_percent::total            1                       # Average percentage of cache occupancy
system.cpu.icache.tags.occ_task_id_blocks::1024          512                       # Occupied blocks per task id
system.cpu.icache.tags.age_task_id_blocks_1024::1           46                       # Occupied blocks per task id
system.cpu.icache.tags.age_task_id_blocks_1024::2          188                       # Occupied blocks per task id
system.cpu.icache.tags.age_task_id_blocks_1024::3          193                       # Occupied blocks per task id
system.cpu.icache.tags.age_task_id_blocks_1024::4           85                       # Occupied blocks per task id
system.cpu.icache.tags.occ_task_id_percent::1024            1                       # Percentage of cache occupancy per task id
system.cpu.icache.tags.tag_accesses         175850593                       # Number of tag accesses
system.cpu.icache.tags.data_accesses        175850593                       # Number of data accesses
system.cpu.dcache.pwrStateResidencyTicks::UNDEFINED 308929703000                       # Cumulative time (in ticks) in various power states
system.cpu.dcache.demand_hits::.cpu.data    106777605                       # number of demand (read+write) hits
system.cpu.dcache.demand_hits::total        106777605                       # number of demand (read+write) hits
system.cpu.dcache.overall_hits::.cpu.data    106777605                       # number of overall hits
system.cpu.dcache.overall_hits::total       106777605                       # number of overall hits
system.cpu.dcache.demand_misses::.cpu.data      1575076                       # number of demand (read+write) misses
system.cpu.dcache.demand_misses::total        1575076                       # number of demand (read+write) misses
system.cpu.dcache.overall_misses::.cpu.data      1575076                       # number of overall misses
system.cpu.dcache.overall_misses::total       1575076                       # number of overall misses
system.cpu.dcache.demand_miss_latency::.cpu.data  95912657000                       # number of demand (read+write) miss cycles
system.cpu.dcache.demand_miss_latency::total  95912657000                       # number of demand (read+write) miss cycles
system.cpu.dcache.overall_miss_latency::.cpu.data  95912657000                       # number of overall miss cycles
system.cpu.dcache.overall_miss_latency::total  95912657000                       # number of overall miss cycles
system.cpu.dcache.demand_accesses::.cpu.data    108352681                       # number of demand (read+write) accesses
system.cpu.dcache.demand_accesses::total    108352681                       # number of demand (read+write) accesses
system.cpu.dcache.overall_accesses::.cpu.data    108352681                       # number of overall (read+write) accesses
system.cpu.dcache.overall_accesses::total    108352681                       # number of overall (read+write) accesses
system.cpu.dcache.demand_miss_rate::.cpu.data     0.014537                       # miss rate for demand accesses
system.cpu.dcache.demand_miss_rate::total     0.014537                       # miss rate for demand accesses
system.cpu.dcache.overall_miss_rate::.cpu.data     0.014537                       # miss rate for overall accesses
system.cpu.dcache.overall_miss_rate::total     0.014537                       # miss rate for overall accesses
system.cpu.dcache.demand_avg_miss_latency::.cpu.data 60893.986703                       # average overall miss latency
system.cpu.dcache.demand_avg_miss_latency::total 60893.986703                       # average overall miss latency
system.cpu.dcache.overall_avg_miss_latency::.cpu.data 60893.986703                       # average overall miss latency
system.cpu.dcache.overall_avg_miss_latency::total 60893.986703                       # average overall miss latency
system.cpu.dcache.blocked_cycles::no_mshrs            0                       # number of cycles access was blocked
system.cpu.dcache.blocked_cycles::no_targets            0                       # number of cycles access was blocked
system.cpu.dcache.blocked::no_mshrs                 0                       # number of cycles access was blocked
system.cpu.dcache.blocked::no_targets               0                       # number of cycles access was blocked
system.cpu.dcache.avg_blocked_cycles::no_mshrs          nan                       # average number of cycles each access was blocked
system.cpu.dcache.avg_blocked_cycles::no_targets          nan                       # average number of cycles each access was blocked
system.cpu.dcache.writebacks::.writebacks       643920                       # number of writebacks
system.cpu.dcache.writebacks::total            643920                       # number of writebacks
system.cpu.dcache.demand_mshr_hits::.cpu.data       499550                       # number of demand (read+write) MSHR hits
system.cpu.dcache.demand_mshr_hits::total       499550                       # number of demand (read+write) MSHR hits
system.cpu.dcache.overall_mshr_hits::.cpu.data       499550                       # number of overall MSHR hits
system.cpu.dcache.overall_mshr_hits::total       499550                       # number of overall MSHR hits
system.cpu.dcache.demand_mshr_misses::.cpu.data      1075526                       # number of demand (read+write) MSHR misses
system.cpu.dcache.demand_mshr_misses::total      1075526                       # number of demand (read+write) MSHR misses
system.cpu.dcache.overall_mshr_misses::.cpu.data      1075526                       # number of overall MSHR misses
system.cpu.dcache.overall_mshr_misses::total      1075526                       # number of overall MSHR misses
system.cpu.dcache.overall_mshr_uncacheable_misses::.cpu.data          316                       # number of overall MSHR uncacheable misses
system.cpu.dcache.overall_mshr_uncacheable_misses::total          316                       # number of overall MSHR uncacheable misses
system.cpu.dcache.demand_mshr_miss_latency::.cpu.data  64448405500                       # number of demand (read+write) MSHR miss cycles
system.cpu.dcache.demand_mshr_miss_latency::total  64448405500                       # number of demand (read+write) MSHR miss cycles
system.cpu.dcache.overall_mshr_miss_latency::.cpu.data  64448405500                       # number of overall MSHR miss cycles
system.cpu.dcache.overall_mshr_miss_latency::total  64448405500                       # number of overall MSHR miss cycles
system.cpu.dcache.demand_mshr_miss_rate::.cpu.data     0.009926                       # mshr miss rate for demand accesses
system.cpu.dcache.demand_mshr_miss_rate::total     0.009926                       # mshr miss rate for demand accesses
system.cpu.dcache.overall_mshr_miss_rate::.cpu.data     0.009926                       # mshr miss rate for overall accesses
system.cpu.dcache.overall_mshr_miss_rate::total     0.009926                       # mshr miss rate for overall accesses
system.cpu.dcache.demand_avg_mshr_miss_latency::.cpu.data 59922.684807                       # average overall mshr miss latency
system.cpu.dcache.demand_avg_mshr_miss_latency::total 59922.684807                       # average overall mshr miss latency
system.cpu.dcache.overall_avg_mshr_miss_latency::.cpu.data 59922.684807                       # average overall mshr miss latency
system.cpu.dcache.overall_avg_mshr_miss_latency::total 59922.684807                       # average overall mshr miss latency
system.cpu.dcache.replacements                1080586                       # number of replacements
system.cpu.dcache.ReadReq_hits::.cpu.data     84538711                       # number of ReadReq hits
system.cpu.dcache.ReadReq_hits::total        84538711                       # number of ReadReq hits
system.cpu.dcache.ReadReq_misses::.cpu.data       749672                       # number of ReadReq misses
system.cpu.dcache.ReadReq_misses::total        749672                       # number of ReadReq misses
system.cpu.dcache.ReadReq_miss_latency::.cpu.data  46526386000                       # number of ReadReq miss cycles
system.cpu.dcache.ReadReq_miss_latency::total  46526386000                       # number of ReadReq miss cycles
system.cpu.dcache.ReadReq_accesses::.cpu.data     85288383                       # number of ReadReq accesses(hits+misses)
system.cpu.dcache.ReadReq_accesses::total     85288383                       # number of ReadReq accesses(hits+misses)
system.cpu.dcache.ReadReq_miss_rate::.cpu.data     0.008790                       # miss rate for ReadReq accesses
system.cpu.dcache.ReadReq_miss_rate::total     0.008790                       # miss rate for ReadReq accesses
system.cpu.dcache.ReadReq_avg_miss_latency::.cpu.data 62062.323256                       # average ReadReq miss latency
system.cpu.dcache.ReadReq_avg_miss_latency::total 62062.323256                       # average ReadReq miss latency
system.cpu.dcache.ReadReq_mshr_hits::.cpu.data        94349                       # number of ReadReq MSHR hits
system.cpu.dcache.ReadReq_mshr_hits::total        94349                       # number of ReadReq MSHR hits
system.cpu.dcache.ReadReq_mshr_misses::.cpu.data       655323                       # number of ReadReq MSHR misses
system.cpu.dcache.ReadReq_mshr_misses::total       655323                       # number of ReadReq MSHR misses
system.cpu.dcache.ReadReq_mshr_miss_latency::.cpu.data  40108591000                       # number of ReadReq MSHR miss cycles
system.cpu.dcache.ReadReq_mshr_miss_latency::total  40108591000                       # number of ReadReq MSHR miss cycles
system.cpu.dcache.ReadReq_mshr_miss_rate::.cpu.data     0.007684                       # mshr miss rate for ReadReq accesses
system.cpu.dcache.ReadReq_mshr_miss_rate::total     0.007684                       # mshr miss rate for ReadReq accesses
system.cpu.dcache.ReadReq_avg_mshr_miss_latency::.cpu.data 61204.308410                       # average ReadReq mshr miss latency
system.cpu.dcache.ReadReq_avg_mshr_miss_latency::total 61204.308410                       # average ReadReq mshr miss latency
system.cpu.dcache.WriteReq_hits::.cpu.data     22238894                       # number of WriteReq hits
system.cpu.dcache.WriteReq_hits::total       22238894                       # number of WriteReq hits
system.cpu.dcache.WriteReq_misses::.cpu.data       825404                       # number of WriteReq misses
system.cpu.dcache.WriteReq_misses::total       825404                       # number of WriteReq misses
system.cpu.dcache.WriteReq_miss_latency::.cpu.data  49386271000                       # number of WriteReq miss cycles
system.cpu.dcache.WriteReq_miss_latency::total  49386271000                       # number of WriteReq miss cycles
system.cpu.dcache.WriteReq_accesses::.cpu.data     23064298                       # number of WriteReq accesses(hits+misses)
system.cpu.dcache.WriteReq_accesses::total     23064298                       # number of WriteReq accesses(hits+misses)
system.cpu.dcache.WriteReq_miss_rate::.cpu.data     0.035787                       # miss rate for WriteReq accesses
system.cpu.dcache.WriteReq_miss_rate::total     0.035787                       # miss rate for WriteReq accesses
system.cpu.dcache.WriteReq_avg_miss_latency::.cpu.data 59832.846703                       # average WriteReq miss latency
system.cpu.dcache.WriteReq_avg_miss_latency::total 59832.846703                       # average WriteReq miss latency
system.cpu.dcache.WriteReq_mshr_hits::.cpu.data       405201                       # number of WriteReq MSHR hits
system.cpu.dcache.WriteReq_mshr_hits::total       405201                       # number of WriteReq MSHR hits
system.cpu.dcache.WriteReq_mshr_misses::.cpu.data       420203                       # number of WriteReq MSHR misses
system.cpu.dcache.WriteReq_mshr_misses::total       420203                       # number of WriteReq MSHR misses
system.cpu.dcache.WriteReq_mshr_uncacheable::.cpu.data          316                       # number of WriteReq MSHR uncacheable
system.cpu.dcache.WriteReq_mshr_uncacheable::total          316                       # number of WriteReq MSHR uncacheable
system.cpu.dcache.WriteReq_mshr_miss_latency::.cpu.data  24339814500                       # number of WriteReq MSHR miss cycles
system.cpu.dcache.WriteReq_mshr_miss_latency::total  24339814500                       # number of WriteReq MSHR miss cycles
system.cpu.dcache.WriteReq_mshr_miss_rate::.cpu.data     0.018219                       # mshr miss rate for WriteReq accesses
system.cpu.dcache.WriteReq_mshr_miss_rate::total     0.018219                       # mshr miss rate for WriteReq accesses
system.cpu.dcache.WriteReq_avg_mshr_miss_latency::.cpu.data 57923.942713                       # average WriteReq mshr miss latency
system.cpu.dcache.WriteReq_avg_mshr_miss_latency::total 57923.942713                       # average WriteReq mshr miss latency
system.cpu.dcache.LoadLockedReq_hits::.cpu.data        65933                       # number of LoadLockedReq hits
system.cpu.dcache.LoadLockedReq_hits::total        65933                       # number of LoadLockedReq hits
system.cpu.dcache.LoadLockedReq_misses::.cpu.data         5060                       # number of LoadLockedReq misses
system.cpu.dcache.LoadLockedReq_misses::total         5060                       # number of LoadLockedReq misses
system.cpu.dcache.LoadLockedReq_miss_latency::.cpu.data    346422000                       # number of LoadLockedReq miss cycles
system.cpu.dcache.LoadLockedReq_miss_latency::total    346422000                       # number of LoadLockedReq miss cycles
system.cpu.dcache.LoadLockedReq_accesses::.cpu.data        70993                       # number of LoadLockedReq accesses(hits+misses)
system.cpu.dcache.LoadLockedReq_accesses::total        70993                       # number of LoadLockedReq accesses(hits+misses)
system.cpu.dcache.LoadLockedReq_miss_rate::.cpu.data     0.071275                       # miss rate for LoadLockedReq accesses
system.cpu.dcache.LoadLockedReq_miss_rate::total     0.071275                       # miss rate for LoadLockedReq accesses
system.cpu.dcache.LoadLockedReq_avg_miss_latency::.cpu.data 68462.845850                       # average LoadLockedReq miss latency
system.cpu.dcache.LoadLockedReq_avg_miss_latency::total 68462.845850                       # average LoadLockedReq miss latency
system.cpu.dcache.LoadLockedReq_mshr_misses::.cpu.data         5060                       # number of LoadLockedReq MSHR misses
system.cpu.dcache.LoadLockedReq_mshr_misses::total         5060                       # number of LoadLockedReq MSHR misses
system.cpu.dcache.LoadLockedReq_mshr_miss_latency::.cpu.data    341362000                       # number of LoadLockedReq MSHR miss cycles
system.cpu.dcache.LoadLockedReq_mshr_miss_latency::total    341362000                       # number of LoadLockedReq MSHR miss cycles
system.cpu.dcache.LoadLockedReq_mshr_miss_rate::.cpu.data     0.071275                       # mshr miss rate for LoadLockedReq accesses
system.cpu.dcache.LoadLockedReq_mshr_miss_rate::total     0.071275                       # mshr miss rate for LoadLockedReq accesses
system.cpu.dcache.LoadLockedReq_avg_mshr_miss_latency::.cpu.data 67462.845850                       # average LoadLockedReq mshr miss latency
system.cpu.dcache.LoadLockedReq_avg_mshr_miss_latency::total 67462.845850                       # average LoadLockedReq mshr miss latency
system.cpu.dcache.StoreCondReq_hits::.cpu.data        70950                       # number of StoreCondReq hits
system.cpu.dcache.StoreCondReq_hits::total        70950                       # number of StoreCondReq hits
system.cpu.dcache.StoreCondReq_accesses::.cpu.data        70950                       # number of StoreCondReq accesses(hits+misses)
system.cpu.dcache.StoreCondReq_accesses::total        70950                       # number of StoreCondReq accesses(hits+misses)
system.cpu.dcache.tags.pwrStateResidencyTicks::UNDEFINED 308929703000                       # Cumulative time (in ticks) in various power states
system.cpu.dcache.tags.tagsinuse                 1024                       # Cycle average of tags in use
system.cpu.dcache.tags.total_refs           108414468                       # Total number of references to valid blocks.
system.cpu.dcache.tags.sampled_refs           1081610                       # Sample count of references to valid blocks.
system.cpu.dcache.tags.avg_refs            100.234343                       # Average number of references to valid blocks.
system.cpu.dcache.tags.warmup_cycle                 0                       # Cycle when the warmup percentage was hit.
system.cpu.dcache.tags.occ_blocks::.cpu.data         1024                       # Average occupied blocks per requestor
system.cpu.dcache.tags.occ_percent::.cpu.data            1                       # Average percentage of cache occupancy
system.cpu.dcache.tags.occ_percent::total            1                       # Average percentage of cache occupancy
system.cpu.dcache.tags.occ_task_id_blocks::1024         1024                       # Occupied blocks per task id
system.cpu.dcache.tags.age_task_id_blocks_1024::0           18                       # Occupied blocks per task id
system.cpu.dcache.tags.age_task_id_blocks_1024::1          213                       # Occupied blocks per task id
system.cpu.dcache.tags.age_task_id_blocks_1024::2          758                       # Occupied blocks per task id
system.cpu.dcache.tags.age_task_id_blocks_1024::3           35                       # Occupied blocks per task id
system.cpu.dcache.tags.occ_task_id_percent::1024            1                       # Percentage of cache occupancy per task id
system.cpu.dcache.tags.tag_accesses         218069834                       # Number of tag accesses
system.cpu.dcache.tags.data_accesses        218069834                       # Number of data accesses

---------- End Simulation Statistics   ----------
