
---------- Begin Simulation Statistics ----------
final_tick                               2541848961500                       # Number of ticks from beginning of simulation (restored from checkpoints and never reset)
host_inst_rate                                 214735                       # Simulator instruction rate (inst/s)
host_mem_usage                                 740740                       # Number of bytes of host memory used
host_op_rate                                   214734                       # Simulator op (including micro ops) rate (op/s)
host_seconds                                    19.54                       # Real time elapsed on the host
host_tick_rate                              605845751                       # Simulator tick rate (ticks/s)
sim_freq                                 1000000000000                       # Frequency of simulated ticks
sim_insts                                     4196208                       # Number of instructions simulated
sim_ops                                       4196208                       # Number of ops (including micro ops) simulated
sim_seconds                                  0.011839                       # Number of seconds simulated
sim_ticks                                 11839116500                       # Number of ticks simulated
system.cpu.branchPred.BTBCorrect                    0                       # Number of correct BTB predictions (this stat may not work properly.
system.cpu.branchPred.BTBHitPct             45.072667                       # BTB Hit Percentage
system.cpu.branchPred.BTBHits                  385150                       # Number of BTB hits
system.cpu.branchPred.BTBLookups               854509                       # Number of BTB lookups
system.cpu.branchPred.RASInCorrect               2405                       # Number of incorrect RAS predictions.
system.cpu.branchPred.condIncorrect             77841                       # Number of conditional branches incorrect
system.cpu.branchPred.condPredicted            805081                       # Number of conditional branches predicted
system.cpu.branchPred.indirectHits              52912                       # Number of indirect target hits.
system.cpu.branchPred.indirectLookups          278926                       # Number of indirect predictor lookups.
system.cpu.branchPred.indirectMisses           226014                       # Number of indirect misses.
system.cpu.branchPred.lookups                  978085                       # Number of BP lookups
system.cpu.branchPred.usedRAS                   64614                       # Number of times the RAS was used to get a target.
system.cpu.branchPredindirectMispredicted        26727                       # Number of mispredicted indirect branches.
system.cpu.committedInsts                     4196208                       # Number of instructions committed
system.cpu.committedOps                       4196208                       # Number of ops (including micro ops) committed
system.cpu.cpi                               5.639664                       # CPI: cycles per instruction
system.cpu.discardedOps                        189722                       # Number of ops (including micro ops) which were discarded before commit
system.cpu.dtb.data_accesses                   607172                       # DTB accesses
system.cpu.dtb.data_acv                           131                       # DTB access violations
system.cpu.dtb.data_hits                      1451874                       # DTB hits
system.cpu.dtb.data_misses                       7657                       # DTB misses
system.cpu.dtb.fetch_accesses                       0                       # ITB accesses
system.cpu.dtb.fetch_acv                            0                       # ITB acv
system.cpu.dtb.fetch_hits                           0                       # ITB hits
system.cpu.dtb.fetch_misses                         0                       # ITB misses
system.cpu.dtb.read_accesses                   405473                       # DTB read accesses
system.cpu.dtb.read_acv                            43                       # DTB read access violations
system.cpu.dtb.read_hits                       849127                       # DTB read hits
system.cpu.dtb.read_misses                       6812                       # DTB read misses
system.cpu.dtb.write_accesses                  201699                       # DTB write accesses
system.cpu.dtb.write_acv                           88                       # DTB write access violations
system.cpu.dtb.write_hits                      602747                       # DTB write hits
system.cpu.dtb.write_misses                       845                       # DTB write misses
system.cpu.fetch2.amo_instructions                  0                       # Number of memory atomic instructions successfully decoded
system.cpu.fetch2.fp_instructions               18042                       # Number of floating point instructions successfully decoded
system.cpu.fetch2.int_instructions            3378765                       # Number of integer instructions successfully decoded
system.cpu.fetch2.load_instructions           1030446                       # Number of memory load instructions successfully decoded
system.cpu.fetch2.store_instructions           661837                       # Number of memory store instructions successfully decoded
system.cpu.fetch2.vec_instructions                  0                       # Number of SIMD instructions successfully decoded
system.cpu.idleCycles                        16721283                       # Total number of cycles that the object has spent stopped
system.cpu.ipc                               0.177316                       # IPC: instructions per cycle
system.cpu.itb.data_accesses                        0                       # DTB accesses
system.cpu.itb.data_acv                             0                       # DTB access violations
system.cpu.itb.data_hits                            0                       # DTB hits
system.cpu.itb.data_misses                          0                       # DTB misses
system.cpu.itb.fetch_accesses                  967732                       # ITB accesses
system.cpu.itb.fetch_acv                          813                       # ITB acv
system.cpu.itb.fetch_hits                      960884                       # ITB hits
system.cpu.itb.fetch_misses                      6848                       # ITB misses
system.cpu.itb.read_accesses                        0                       # DTB read accesses
system.cpu.itb.read_acv                             0                       # DTB read access violations
system.cpu.itb.read_hits                            0                       # DTB read hits
system.cpu.itb.read_misses                          0                       # DTB read misses
system.cpu.itb.write_accesses                       0                       # DTB write accesses
system.cpu.itb.write_acv                            0                       # DTB write access violations
system.cpu.itb.write_hits                           0                       # DTB write hits
system.cpu.itb.write_misses                         0                       # DTB write misses
system.cpu.kern.callpal::swpctx                   574      9.45%      9.45% # number of callpals executed
system.cpu.kern.callpal::tbi                       25      0.41%      9.86% # number of callpals executed
system.cpu.kern.callpal::swpipl                  4213     69.34%     79.20% # number of callpals executed
system.cpu.kern.callpal::rdps                      48      0.79%     79.99% # number of callpals executed
system.cpu.kern.callpal::wrusp                      4      0.07%     80.05% # number of callpals executed
system.cpu.kern.callpal::rdusp                      3      0.05%     80.10% # number of callpals executed
system.cpu.kern.callpal::rti                      896     14.75%     94.85% # number of callpals executed
system.cpu.kern.callpal::callsys                  235      3.87%     98.72% # number of callpals executed
system.cpu.kern.callpal::imb                       78      1.28%    100.00% # number of callpals executed
system.cpu.kern.callpal::total                   6076                       # number of callpals executed
system.cpu.kern.inst.arm                            0                       # number of arm instructions executed
system.cpu.kern.inst.hwrei                      14419                       # number of hwrei instructions executed
system.cpu.kern.inst.quiesce                        9                       # number of quiesce instructions executed
system.cpu.kern.ipl_count::0                     2431     47.42%     47.42% # number of times we switched to this ipl
system.cpu.kern.ipl_count::21                       5      0.10%     47.52% # number of times we switched to this ipl
system.cpu.kern.ipl_count::22                      12      0.23%     47.76% # number of times we switched to this ipl
system.cpu.kern.ipl_count::31                    2678     52.24%    100.00% # number of times we switched to this ipl
system.cpu.kern.ipl_count::total                 5126                       # number of times we switched to this ipl
system.cpu.kern.ipl_good::0                      2418     49.82%     49.82% # number of times we switched to this ipl from a different ipl
system.cpu.kern.ipl_good::21                        5      0.10%     49.93% # number of times we switched to this ipl from a different ipl
system.cpu.kern.ipl_good::22                       12      0.25%     50.18% # number of times we switched to this ipl from a different ipl
system.cpu.kern.ipl_good::31                     2418     49.82%    100.00% # number of times we switched to this ipl from a different ipl
system.cpu.kern.ipl_good::total                  4853                       # number of times we switched to this ipl from a different ipl
system.cpu.kern.ipl_ticks::0              10926763500     92.26%     92.26% # number of cycles we spent at this ipl
system.cpu.kern.ipl_ticks::21                 9430500      0.08%     92.34% # number of cycles we spent at this ipl
system.cpu.kern.ipl_ticks::22                17009500      0.14%     92.48% # number of cycles we spent at this ipl
system.cpu.kern.ipl_ticks::31               890352500      7.52%    100.00% # number of cycles we spent at this ipl
system.cpu.kern.ipl_ticks::total          11843556000                       # number of cycles we spent at this ipl
system.cpu.kern.ipl_used::0                  0.994652                       # fraction of swpipl calls that actually changed the ipl
system.cpu.kern.ipl_used::21                        1                       # fraction of swpipl calls that actually changed the ipl
system.cpu.kern.ipl_used::22                        1                       # fraction of swpipl calls that actually changed the ipl
system.cpu.kern.ipl_used::31                 0.902913                       # fraction of swpipl calls that actually changed the ipl
system.cpu.kern.ipl_used::total              0.946742                       # fraction of swpipl calls that actually changed the ipl
system.cpu.kern.mode_good::kernel                 870                      
system.cpu.kern.mode_good::user                   870                      
system.cpu.kern.mode_good::idle                     0                      
system.cpu.kern.mode_switch::kernel              1470                       # number of protection mode switches
system.cpu.kern.mode_switch::user                 870                       # number of protection mode switches
system.cpu.kern.mode_switch::idle                   0                       # number of protection mode switches
system.cpu.kern.mode_switch_good::kernel     0.591837                       # fraction of useful protection mode switches
system.cpu.kern.mode_switch_good::user              1                       # fraction of useful protection mode switches
system.cpu.kern.mode_switch_good::idle            nan                       # fraction of useful protection mode switches
system.cpu.kern.mode_switch_good::total      0.743590                       # fraction of useful protection mode switches
system.cpu.kern.mode_ticks::kernel         8004243000     67.58%     67.58% # number of ticks spent at the given mode
system.cpu.kern.mode_ticks::user           3839313000     32.42%    100.00% # number of ticks spent at the given mode
system.cpu.kern.mode_ticks::idle                    0      0.00%    100.00% # number of ticks spent at the given mode
system.cpu.kern.swap_context                      574                       # number of times the context was actually changed
system.cpu.numCycles                         23665204                       # number of cpu cycles simulated
system.cpu.numFetchSuspends                         9                       # Number of times Execute suspended instruction fetching
system.cpu.numWorkItemsCompleted                    0                       # number of work items this cpu completed
system.cpu.numWorkItemsStarted                      0                       # number of work items this cpu started
system.cpu.op_class_0::No_OpClass               85426      2.04%      2.04% # Class of committed instruction
system.cpu.op_class_0::IntAlu                 2541534     60.57%     62.60% # Class of committed instruction
system.cpu.op_class_0::IntMult                   3673      0.09%     62.69% # Class of committed instruction
system.cpu.op_class_0::IntDiv                       0      0.00%     62.69% # Class of committed instruction
system.cpu.op_class_0::FloatAdd                  8286      0.20%     62.89% # Class of committed instruction
system.cpu.op_class_0::FloatCmp                     0      0.00%     62.89% # Class of committed instruction
system.cpu.op_class_0::FloatCvt                     0      0.00%     62.89% # Class of committed instruction
system.cpu.op_class_0::FloatMult                    0      0.00%     62.89% # Class of committed instruction
system.cpu.op_class_0::FloatMultAcc                 0      0.00%     62.89% # Class of committed instruction
system.cpu.op_class_0::FloatDiv                  1593      0.04%     62.93% # Class of committed instruction
system.cpu.op_class_0::FloatMisc                    0      0.00%     62.93% # Class of committed instruction
system.cpu.op_class_0::FloatSqrt                    0      0.00%     62.93% # Class of committed instruction
system.cpu.op_class_0::SimdAdd                      0      0.00%     62.93% # Class of committed instruction
system.cpu.op_class_0::SimdAddAcc                   0      0.00%     62.93% # Class of committed instruction
system.cpu.op_class_0::SimdAlu                      0      0.00%     62.93% # Class of committed instruction
system.cpu.op_class_0::SimdCmp                      0      0.00%     62.93% # Class of committed instruction
system.cpu.op_class_0::SimdCvt                      0      0.00%     62.93% # Class of committed instruction
system.cpu.op_class_0::SimdMisc                     0      0.00%     62.93% # Class of committed instruction
system.cpu.op_class_0::SimdMult                     0      0.00%     62.93% # Class of committed instruction
system.cpu.op_class_0::SimdMultAcc                  0      0.00%     62.93% # Class of committed instruction
system.cpu.op_class_0::SimdShift                    0      0.00%     62.93% # Class of committed instruction
system.cpu.op_class_0::SimdShiftAcc                 0      0.00%     62.93% # Class of committed instruction
system.cpu.op_class_0::SimdDiv                      0      0.00%     62.93% # Class of committed instruction
system.cpu.op_class_0::SimdSqrt                     0      0.00%     62.93% # Class of committed instruction
system.cpu.op_class_0::SimdFloatAdd                 0      0.00%     62.93% # Class of committed instruction
system.cpu.op_class_0::SimdFloatAlu                 0      0.00%     62.93% # Class of committed instruction
system.cpu.op_class_0::SimdFloatCmp                 0      0.00%     62.93% # Class of committed instruction
system.cpu.op_class_0::SimdFloatCvt                 0      0.00%     62.93% # Class of committed instruction
system.cpu.op_class_0::SimdFloatDiv                 0      0.00%     62.93% # Class of committed instruction
system.cpu.op_class_0::SimdFloatMisc                0      0.00%     62.93% # Class of committed instruction
system.cpu.op_class_0::SimdFloatMult                0      0.00%     62.93% # Class of committed instruction
system.cpu.op_class_0::SimdFloatMultAcc             0      0.00%     62.93% # Class of committed instruction
system.cpu.op_class_0::SimdFloatSqrt                0      0.00%     62.93% # Class of committed instruction
system.cpu.op_class_0::SimdReduceAdd                0      0.00%     62.93% # Class of committed instruction
system.cpu.op_class_0::SimdReduceAlu                0      0.00%     62.93% # Class of committed instruction
system.cpu.op_class_0::SimdReduceCmp                0      0.00%     62.93% # Class of committed instruction
system.cpu.op_class_0::SimdFloatReduceAdd            0      0.00%     62.93% # Class of committed instruction
system.cpu.op_class_0::SimdFloatReduceCmp            0      0.00%     62.93% # Class of committed instruction
system.cpu.op_class_0::SimdAes                      0      0.00%     62.93% # Class of committed instruction
system.cpu.op_class_0::SimdAesMix                   0      0.00%     62.93% # Class of committed instruction
system.cpu.op_class_0::SimdSha1Hash                 0      0.00%     62.93% # Class of committed instruction
system.cpu.op_class_0::SimdSha1Hash2                0      0.00%     62.93% # Class of committed instruction
system.cpu.op_class_0::SimdSha256Hash               0      0.00%     62.93% # Class of committed instruction
system.cpu.op_class_0::SimdSha256Hash2              0      0.00%     62.93% # Class of committed instruction
system.cpu.op_class_0::SimdShaSigma2                0      0.00%     62.93% # Class of committed instruction
system.cpu.op_class_0::SimdShaSigma3                0      0.00%     62.93% # Class of committed instruction
system.cpu.op_class_0::SimdPredAlu                  0      0.00%     62.93% # Class of committed instruction
system.cpu.op_class_0::MemRead                 839407     20.00%     82.93% # Class of committed instruction
system.cpu.op_class_0::MemWrite                592686     14.12%     97.05% # Class of committed instruction
system.cpu.op_class_0::FloatMemRead              9988      0.24%     97.29% # Class of committed instruction
system.cpu.op_class_0::FloatMemWrite             8788      0.21%     97.50% # Class of committed instruction
system.cpu.op_class_0::IprAccess               104827      2.50%    100.00% # Class of committed instruction
system.cpu.op_class_0::InstPrefetch                 0      0.00%    100.00% # Class of committed instruction
system.cpu.op_class_0::total                  4196208                       # Class of committed instruction
system.cpu.quiesceCycles                        13029                       # Total number of cycles that CPU has spent quiesced or waiting for an interrupt
system.cpu.tickCycles                         6943921                       # Number of cycles that the object actually ticked
system.disk0.dma_read_bytes                         0                       # Number of bytes transfered via DMA reads (not PRD).
system.disk0.dma_read_full_pages                    0                       # Number of full page size DMA reads (not PRD).
system.disk0.dma_read_txs                           0                       # Number of DMA read transactions (not PRD).
system.disk0.dma_write_bytes                    12288                       # Number of bytes transfered via DMA writes.
system.disk0.dma_write_full_pages                   0                       # Number of full page size DMA writes.
system.disk0.dma_write_txs                          3                       # Number of DMA write transactions.
system.disk2.dma_read_bytes                         0                       # Number of bytes transfered via DMA reads (not PRD).
system.disk2.dma_read_full_pages                    0                       # Number of full page size DMA reads (not PRD).
system.disk2.dma_read_txs                           0                       # Number of DMA read transactions (not PRD).
system.disk2.dma_write_bytes                        0                       # Number of bytes transfered via DMA writes.
system.disk2.dma_write_full_pages                   0                       # Number of full page size DMA writes.
system.disk2.dma_write_txs                          0                       # Number of DMA write transactions.
system.membus.snoop_filter.hit_multi_requests          440                       # Number of requests hitting in the snoop filter with multiple (>1) holders of the requested data.
system.membus.snoop_filter.hit_multi_snoops            0                       # Number of snoops hitting in the snoop filter with multiple (>1) holders of the requested data.
system.membus.snoop_filter.hit_single_requests       155621                       # Number of requests hitting in the snoop filter with a single holder of the requested data.
system.membus.snoop_filter.hit_single_snoops            0                       # Number of snoops hitting in the snoop filter with a single holder of the requested data.
system.membus.snoop_filter.tot_requests        312845                       # Total number of requests made to the snoop filter.
system.membus.snoop_filter.tot_snoops               0                       # Total number of snoops made to the snoop filter.
system.tsunami.ethernet.coalescedRxDesc           nan                       # average number of RxDesc's coalesced into each post
system.tsunami.ethernet.coalescedRxIdle           nan                       # average number of RxIdle's coalesced into each post
system.tsunami.ethernet.coalescedRxOk             nan                       # average number of RxOk's coalesced into each post
system.tsunami.ethernet.coalescedRxOrn            nan                       # average number of RxOrn's coalesced into each post
system.tsunami.ethernet.coalescedSwi              nan                       # average number of Swi's coalesced into each post
system.tsunami.ethernet.coalescedTotal            nan                       # average number of interrupts coalesced into each post
system.tsunami.ethernet.coalescedTxDesc           nan                       # average number of TxDesc's coalesced into each post
system.tsunami.ethernet.coalescedTxIdle           nan                       # average number of TxIdle's coalesced into each post
system.tsunami.ethernet.coalescedTxOk             nan                       # average number of TxOk's coalesced into each post
system.tsunami.ethernet.descDMAReads                0                       # Number of descriptors the device read w/ DMA
system.tsunami.ethernet.descDMAWrites               0                       # Number of descriptors the device wrote w/ DMA
system.tsunami.ethernet.descDmaReadBytes            0                       # number of descriptor bytes read w/ DMA
system.tsunami.ethernet.descDmaWriteBytes            0                       # number of descriptor bytes write w/ DMA
system.tsunami.ethernet.droppedPackets              0                       # number of packets dropped
system.tsunami.ethernet.postedInterrupts            0                       # number of posts to CPU
system.tsunami.ethernet.postedRxDesc                0                       # number of RxDesc interrupts posted to CPU
system.tsunami.ethernet.postedRxIdle                0                       # number of rxIdle interrupts posted to CPU
system.tsunami.ethernet.postedRxOk                  0                       # number of RxOk interrupts posted to CPU
system.tsunami.ethernet.postedRxOrn                 0                       # number of RxOrn posted to CPU
system.tsunami.ethernet.postedSwi                   0                       # number of software interrupts posted to CPU
system.tsunami.ethernet.postedTxDesc                0                       # number of TxDesc interrupts posted to CPU
system.tsunami.ethernet.postedTxIdle                0                       # number of TxIdle interrupts posted to CPU
system.tsunami.ethernet.postedTxOk                  0                       # number of TxOk interrupts posted to CPU
system.tsunami.ethernet.totalRxDesc                 0                       # total number of RxDesc written to ISR
system.tsunami.ethernet.totalRxIdle                 0                       # total number of RxIdle written to ISR
system.tsunami.ethernet.totalRxOk                   0                       # total number of RxOk written to ISR
system.tsunami.ethernet.totalRxOrn                  0                       # total number of RxOrn written to ISR
system.tsunami.ethernet.totalSwi                    0                       # total number of Swi written to ISR
system.tsunami.ethernet.totalTxDesc                 0                       # total number of TxDesc written to ISR
system.tsunami.ethernet.totalTxIdle                 0                       # total number of TxIdle written to ISR
system.tsunami.ethernet.totalTxOk                   0                       # total number of TxOk written to ISR
system.bridge.pwrStateResidencyTicks::UNDEFINED 2541848961500                       # Cumulative time (in ticks) in various power states
system.voltage_domain.voltage                       1                       # Voltage in Volts
system.iocache.pwrStateResidencyTicks::UNDEFINED 2541848961500                       # Cumulative time (in ticks) in various power states
system.iocache.demand_misses::.tsunami.ide          195                       # number of demand (read+write) misses
system.iocache.demand_misses::total               195                       # number of demand (read+write) misses
system.iocache.overall_misses::.tsunami.ide          195                       # number of overall misses
system.iocache.overall_misses::total              195                       # number of overall misses
system.iocache.demand_miss_latency::.tsunami.ide     22855455                       # number of demand (read+write) miss cycles
system.iocache.demand_miss_latency::total     22855455                       # number of demand (read+write) miss cycles
system.iocache.overall_miss_latency::.tsunami.ide     22855455                       # number of overall miss cycles
system.iocache.overall_miss_latency::total     22855455                       # number of overall miss cycles
system.iocache.demand_accesses::.tsunami.ide          195                       # number of demand (read+write) accesses
system.iocache.demand_accesses::total             195                       # number of demand (read+write) accesses
system.iocache.overall_accesses::.tsunami.ide          195                       # number of overall (read+write) accesses
system.iocache.overall_accesses::total            195                       # number of overall (read+write) accesses
system.iocache.demand_miss_rate::.tsunami.ide            1                       # miss rate for demand accesses
system.iocache.demand_miss_rate::total              1                       # miss rate for demand accesses
system.iocache.overall_miss_rate::.tsunami.ide            1                       # miss rate for overall accesses
system.iocache.overall_miss_rate::total             1                       # miss rate for overall accesses
system.iocache.demand_avg_miss_latency::.tsunami.ide 117207.461538                       # average overall miss latency
system.iocache.demand_avg_miss_latency::total 117207.461538                       # average overall miss latency
system.iocache.overall_avg_miss_latency::.tsunami.ide 117207.461538                       # average overall miss latency
system.iocache.overall_avg_miss_latency::total 117207.461538                       # average overall miss latency
system.iocache.blocked_cycles::no_mshrs             0                       # number of cycles access was blocked
system.iocache.blocked_cycles::no_targets            0                       # number of cycles access was blocked
system.iocache.blocked::no_mshrs                    0                       # number of cycles access was blocked
system.iocache.blocked::no_targets                  0                       # number of cycles access was blocked
system.iocache.avg_blocked_cycles::no_mshrs          nan                       # average number of cycles each access was blocked
system.iocache.avg_blocked_cycles::no_targets          nan                       # average number of cycles each access was blocked
system.iocache.writebacks::.writebacks            176                       # number of writebacks
system.iocache.writebacks::total                  176                       # number of writebacks
system.iocache.demand_mshr_misses::.tsunami.ide          195                       # number of demand (read+write) MSHR misses
system.iocache.demand_mshr_misses::total          195                       # number of demand (read+write) MSHR misses
system.iocache.overall_mshr_misses::.tsunami.ide          195                       # number of overall MSHR misses
system.iocache.overall_mshr_misses::total          195                       # number of overall MSHR misses
system.iocache.demand_mshr_miss_latency::.tsunami.ide     13091490                       # number of demand (read+write) MSHR miss cycles
system.iocache.demand_mshr_miss_latency::total     13091490                       # number of demand (read+write) MSHR miss cycles
system.iocache.overall_mshr_miss_latency::.tsunami.ide     13091490                       # number of overall MSHR miss cycles
system.iocache.overall_mshr_miss_latency::total     13091490                       # number of overall MSHR miss cycles
system.iocache.demand_mshr_miss_rate::.tsunami.ide            1                       # mshr miss rate for demand accesses
system.iocache.demand_mshr_miss_rate::total            1                       # mshr miss rate for demand accesses
system.iocache.overall_mshr_miss_rate::.tsunami.ide            1                       # mshr miss rate for overall accesses
system.iocache.overall_mshr_miss_rate::total            1                       # mshr miss rate for overall accesses
system.iocache.demand_avg_mshr_miss_latency::.tsunami.ide 67135.846154                       # average overall mshr miss latency
system.iocache.demand_avg_mshr_miss_latency::total 67135.846154                       # average overall mshr miss latency
system.iocache.overall_avg_mshr_miss_latency::.tsunami.ide 67135.846154                       # average overall mshr miss latency
system.iocache.overall_avg_mshr_miss_latency::total 67135.846154                       # average overall mshr miss latency
system.iocache.replacements                       179                       # number of replacements
system.iocache.ReadReq_misses::.tsunami.ide            3                       # number of ReadReq misses
system.iocache.ReadReq_misses::total                3                       # number of ReadReq misses
system.iocache.ReadReq_miss_latency::.tsunami.ide       349497                       # number of ReadReq miss cycles
system.iocache.ReadReq_miss_latency::total       349497                       # number of ReadReq miss cycles
system.iocache.ReadReq_accesses::.tsunami.ide            3                       # number of ReadReq accesses(hits+misses)
system.iocache.ReadReq_accesses::total              3                       # number of ReadReq accesses(hits+misses)
system.iocache.ReadReq_miss_rate::.tsunami.ide            1                       # miss rate for ReadReq accesses
system.iocache.ReadReq_miss_rate::total             1                       # miss rate for ReadReq accesses
system.iocache.ReadReq_avg_miss_latency::.tsunami.ide       116499                       # average ReadReq miss latency
system.iocache.ReadReq_avg_miss_latency::total       116499                       # average ReadReq miss latency
system.iocache.ReadReq_mshr_misses::.tsunami.ide            3                       # number of ReadReq MSHR misses
system.iocache.ReadReq_mshr_misses::total            3                       # number of ReadReq MSHR misses
system.iocache.ReadReq_mshr_miss_latency::.tsunami.ide       199497                       # number of ReadReq MSHR miss cycles
system.iocache.ReadReq_mshr_miss_latency::total       199497                       # number of ReadReq MSHR miss cycles
system.iocache.ReadReq_mshr_miss_rate::.tsunami.ide            1                       # mshr miss rate for ReadReq accesses
system.iocache.ReadReq_mshr_miss_rate::total            1                       # mshr miss rate for ReadReq accesses
system.iocache.ReadReq_avg_mshr_miss_latency::.tsunami.ide        66499                       # average ReadReq mshr miss latency
system.iocache.ReadReq_avg_mshr_miss_latency::total        66499                       # average ReadReq mshr miss latency
system.iocache.WriteLineReq_misses::.tsunami.ide          192                       # number of WriteLineReq misses
system.iocache.WriteLineReq_misses::total          192                       # number of WriteLineReq misses
system.iocache.WriteLineReq_miss_latency::.tsunami.ide     22505958                       # number of WriteLineReq miss cycles
system.iocache.WriteLineReq_miss_latency::total     22505958                       # number of WriteLineReq miss cycles
system.iocache.WriteLineReq_accesses::.tsunami.ide          192                       # number of WriteLineReq accesses(hits+misses)
system.iocache.WriteLineReq_accesses::total          192                       # number of WriteLineReq accesses(hits+misses)
system.iocache.WriteLineReq_miss_rate::.tsunami.ide            1                       # miss rate for WriteLineReq accesses
system.iocache.WriteLineReq_miss_rate::total            1                       # miss rate for WriteLineReq accesses
system.iocache.WriteLineReq_avg_miss_latency::.tsunami.ide 117218.531250                       # average WriteLineReq miss latency
system.iocache.WriteLineReq_avg_miss_latency::total 117218.531250                       # average WriteLineReq miss latency
system.iocache.WriteLineReq_mshr_misses::.tsunami.ide          192                       # number of WriteLineReq MSHR misses
system.iocache.WriteLineReq_mshr_misses::total          192                       # number of WriteLineReq MSHR misses
system.iocache.WriteLineReq_mshr_miss_latency::.tsunami.ide     12891993                       # number of WriteLineReq MSHR miss cycles
system.iocache.WriteLineReq_mshr_miss_latency::total     12891993                       # number of WriteLineReq MSHR miss cycles
system.iocache.WriteLineReq_mshr_miss_rate::.tsunami.ide            1                       # mshr miss rate for WriteLineReq accesses
system.iocache.WriteLineReq_mshr_miss_rate::total            1                       # mshr miss rate for WriteLineReq accesses
system.iocache.WriteLineReq_avg_mshr_miss_latency::.tsunami.ide 67145.796875                       # average WriteLineReq mshr miss latency
system.iocache.WriteLineReq_avg_mshr_miss_latency::total 67145.796875                       # average WriteLineReq mshr miss latency
system.iocache.tags.pwrStateResidencyTicks::UNDEFINED 2541848961500                       # Cumulative time (in ticks) in various power states
system.iocache.tags.tagsinuse                3.269715                       # Cycle average of tags in use
system.iocache.tags.total_refs                    179                       # Total number of references to valid blocks.
system.iocache.tags.sampled_refs                  179                       # Sample count of references to valid blocks.
system.iocache.tags.avg_refs                        1                       # Average number of references to valid blocks.
system.iocache.tags.warmup_cycle         2539428475000                       # Cycle when the warmup percentage was hit.
system.iocache.tags.occ_blocks::.tsunami.ide     3.269715                       # Average occupied blocks per requestor
system.iocache.tags.occ_percent::.tsunami.ide     0.204357                       # Average percentage of cache occupancy
system.iocache.tags.occ_percent::total       0.204357                       # Average percentage of cache occupancy
system.iocache.tags.occ_task_id_blocks::1023           16                       # Occupied blocks per task id
system.iocache.tags.age_task_id_blocks_1023::3           16                       # Occupied blocks per task id
system.iocache.tags.occ_task_id_percent::1023            1                       # Percentage of cache occupancy per task id
system.iocache.tags.tag_accesses                 1755                       # Number of tag accesses
system.iocache.tags.data_accesses                1755                       # Number of data accesses
system.membus.pwrStateResidencyTicks::UNDEFINED 2541848961500                       # Cumulative time (in ticks) in various power states
system.membus.trans_dist::ReadReq                 108                       # Transaction distribution
system.membus.trans_dist::ReadResp             128124                       # Transaction distribution
system.membus.trans_dist::WriteReq                 99                       # Transaction distribution
system.membus.trans_dist::WriteResp                99                       # Transaction distribution
system.membus.trans_dist::WritebackDirty        34859                       # Transaction distribution
system.membus.trans_dist::WritebackClean        86565                       # Transaction distribution
system.membus.trans_dist::CleanEvict            34174                       # Transaction distribution
system.membus.trans_dist::UpgradeReq               16                       # Transaction distribution
system.membus.trans_dist::ReadExReq             29020                       # Transaction distribution
system.membus.trans_dist::ReadExResp            29020                       # Transaction distribution
system.membus.trans_dist::ReadCleanReq          87155                       # Transaction distribution
system.membus.trans_dist::ReadSharedReq         40862                       # Transaction distribution
system.membus.trans_dist::BadAddressError            1                       # Transaction distribution
system.membus.trans_dist::InvalidateReq           192                       # Transaction distribution
system.membus.pkt_count_system.iocache.mem_side::system.mem_ctrls.port          374                       # Packet count per connected master and slave (bytes)
system.membus.pkt_count_system.iocache.mem_side::total          374                       # Packet count per connected master and slave (bytes)
system.membus.pkt_count_system.cpu.icache.mem_side::system.mem_ctrls.port       260812                       # Packet count per connected master and slave (bytes)
system.membus.pkt_count_system.cpu.icache.mem_side::total       260812                       # Packet count per connected master and slave (bytes)
system.membus.pkt_count_system.cpu.dcache.mem_side::system.bridge.slave          414                       # Packet count per connected master and slave (bytes)
system.membus.pkt_count_system.cpu.dcache.mem_side::system.mem_ctrls.port       208626                       # Packet count per connected master and slave (bytes)
system.membus.pkt_count_system.cpu.dcache.mem_side::system.membus.badaddr_responder.pio            2                       # Packet count per connected master and slave (bytes)
system.membus.pkt_count_system.cpu.dcache.mem_side::total       209042                       # Packet count per connected master and slave (bytes)
system.membus.pkt_count::total                 470228                       # Packet count per connected master and slave (bytes)
system.membus.pkt_size_system.iocache.mem_side::system.mem_ctrls.port        11264                       # Cumulative packet size per connected master and slave (bytes)
system.membus.pkt_size_system.iocache.mem_side::total        11264                       # Cumulative packet size per connected master and slave (bytes)
system.membus.pkt_size_system.cpu.icache.mem_side::system.mem_ctrls.port     11114048                       # Cumulative packet size per connected master and slave (bytes)
system.membus.pkt_size_system.cpu.icache.mem_side::total     11114048                       # Cumulative packet size per connected master and slave (bytes)
system.membus.pkt_size_system.cpu.dcache.mem_side::system.bridge.slave          433                       # Cumulative packet size per connected master and slave (bytes)
system.membus.pkt_size_system.cpu.dcache.mem_side::system.mem_ctrls.port      6691904                       # Cumulative packet size per connected master and slave (bytes)
system.membus.pkt_size_system.cpu.dcache.mem_side::total      6692337                       # Cumulative packet size per connected master and slave (bytes)
system.membus.pkt_size::total                17817649                       # Cumulative packet size per connected master and slave (bytes)
system.membus.snoops                               66                       # Total snoops (count)
system.membus.snoopTraffic                       4224                       # Total snoop traffic (bytes)
system.membus.snoop_fanout::samples            157452                       # Request fanout histogram
system.membus.snoop_fanout::mean             0.002807                       # Request fanout histogram
system.membus.snoop_fanout::stdev            0.052909                       # Request fanout histogram
system.membus.snoop_fanout::underflows              0      0.00%      0.00% # Request fanout histogram
system.membus.snoop_fanout::0                  157010     99.72%     99.72% # Request fanout histogram
system.membus.snoop_fanout::1                     442      0.28%    100.00% # Request fanout histogram
system.membus.snoop_fanout::2                       0      0.00%    100.00% # Request fanout histogram
system.membus.snoop_fanout::3                       0      0.00%    100.00% # Request fanout histogram
system.membus.snoop_fanout::overflows               0      0.00%    100.00% # Request fanout histogram
system.membus.snoop_fanout::min_value               0                       # Request fanout histogram
system.membus.snoop_fanout::max_value               1                       # Request fanout histogram
system.membus.snoop_fanout::total              157452                       # Request fanout histogram
system.membus.reqLayer0.occupancy              353000                       # Layer occupancy (ticks)
system.membus.reqLayer0.utilization               0.0                       # Layer utilization (%)
system.membus.reqLayer1.occupancy           820926038                       # Layer occupancy (ticks)
system.membus.reqLayer1.utilization               6.9                       # Layer utilization (%)
system.membus.reqLayer2.occupancy                1500                       # Layer occupancy (ticks)
system.membus.reqLayer2.utilization               0.0                       # Layer utilization (%)
system.membus.respLayer1.occupancy              17997                       # Layer occupancy (ticks)
system.membus.respLayer1.utilization              0.0                       # Layer utilization (%)
system.membus.respLayer3.occupancy          375916500                       # Layer occupancy (ticks)
system.membus.respLayer3.utilization              3.2                       # Layer utilization (%)
system.membus.badaddr_responder.pwrStateResidencyTicks::UNDEFINED 2541848961500                       # Cumulative time (in ticks) in various power states
system.membus.respLayer2.occupancy          462096750                       # Layer occupancy (ticks)
system.membus.respLayer2.utilization              3.9                       # Layer utilization (%)
system.clk_domain.clock                          1000                       # Clock period in ticks
system.tsunami.fake_uart1.pwrStateResidencyTicks::UNDEFINED 2541848961500                       # Cumulative time (in ticks) in various power states
system.tsunami.fake_uart2.pwrStateResidencyTicks::UNDEFINED 2541848961500                       # Cumulative time (in ticks) in various power states
system.tsunami.fake_uart3.pwrStateResidencyTicks::UNDEFINED 2541848961500                       # Cumulative time (in ticks) in various power states
system.tsunami.fake_uart4.pwrStateResidencyTicks::UNDEFINED 2541848961500                       # Cumulative time (in ticks) in various power states
system.tsunami.fake_ppc.pwrStateResidencyTicks::UNDEFINED 2541848961500                       # Cumulative time (in ticks) in various power states
system.tsunami.cchip.pwrStateResidencyTicks::UNDEFINED 2541848961500                       # Cumulative time (in ticks) in various power states
system.tsunami.io.pwrStateResidencyTicks::UNDEFINED 2541848961500                       # Cumulative time (in ticks) in various power states
system.tsunami.pchip.pwrStateResidencyTicks::UNDEFINED 2541848961500                       # Cumulative time (in ticks) in various power states
system.tsunami.fake_ata1.pwrStateResidencyTicks::UNDEFINED 2541848961500                       # Cumulative time (in ticks) in various power states
system.tsunami.fake_ata0.pwrStateResidencyTicks::UNDEFINED 2541848961500                       # Cumulative time (in ticks) in various power states
system.tsunami.backdoor.pwrStateResidencyTicks::UNDEFINED 2541848961500                       # Cumulative time (in ticks) in various power states
system.tsunami.fake_pnp_read3.pwrStateResidencyTicks::UNDEFINED 2541848961500                       # Cumulative time (in ticks) in various power states
system.tsunami.fake_pnp_read2.pwrStateResidencyTicks::UNDEFINED 2541848961500                       # Cumulative time (in ticks) in various power states
system.tsunami.fake_pnp_read1.pwrStateResidencyTicks::UNDEFINED 2541848961500                       # Cumulative time (in ticks) in various power states
system.tsunami.fake_pnp_read0.pwrStateResidencyTicks::UNDEFINED 2541848961500                       # Cumulative time (in ticks) in various power states
system.tsunami.fake_pnp_read7.pwrStateResidencyTicks::UNDEFINED 2541848961500                       # Cumulative time (in ticks) in various power states
system.tsunami.fake_pnp_read6.pwrStateResidencyTicks::UNDEFINED 2541848961500                       # Cumulative time (in ticks) in various power states
system.tsunami.fake_pnp_read5.pwrStateResidencyTicks::UNDEFINED 2541848961500                       # Cumulative time (in ticks) in various power states
system.tsunami.fake_pnp_read4.pwrStateResidencyTicks::UNDEFINED 2541848961500                       # Cumulative time (in ticks) in various power states
system.tsunami.fake_pnp_write.pwrStateResidencyTicks::UNDEFINED 2541848961500                       # Cumulative time (in ticks) in various power states
system.tsunami.fb.pwrStateResidencyTicks::UNDEFINED 2541848961500                       # Cumulative time (in ticks) in various power states
system.tsunami.fake_pnp_addr.pwrStateResidencyTicks::UNDEFINED 2541848961500                       # Cumulative time (in ticks) in various power states
system.tsunami.fake_OROM.pwrStateResidencyTicks::UNDEFINED 2541848961500                       # Cumulative time (in ticks) in various power states
system.tsunami.uart.pwrStateResidencyTicks::UNDEFINED 2541848961500                       # Cumulative time (in ticks) in various power states
system.tsunami.fake_sm_chip.pwrStateResidencyTicks::UNDEFINED 2541848961500                       # Cumulative time (in ticks) in various power states
system.tsunami.ethernet.pwrStateResidencyTicks::UNDEFINED 2541848961500                       # Cumulative time (in ticks) in various power states
system.tsunami.ide.pwrStateResidencyTicks::UNDEFINED 2541848961500                       # Cumulative time (in ticks) in various power states
system.cpu_voltage_domain.voltage                   1                       # Voltage in Volts
system.mem_ctrls.pwrStateResidencyTicks::UNDEFINED 2541848961500                       # Cumulative time (in ticks) in various power states
system.mem_ctrls.bytes_read::.cpu.inst        5573888                       # Number of bytes read from this memory
system.mem_ctrls.bytes_read::.cpu.data        4472192                       # Number of bytes read from this memory
system.mem_ctrls.bytes_read::total           10046080                       # Number of bytes read from this memory
system.mem_ctrls.bytes_inst_read::.cpu.inst      5573888                       # Number of instructions bytes read from this memory
system.mem_ctrls.bytes_inst_read::total       5573888                       # Number of instructions bytes read from this memory
system.mem_ctrls.bytes_written::.writebacks      2230976                       # Number of bytes written to this memory
system.mem_ctrls.bytes_written::total         2230976                       # Number of bytes written to this memory
system.mem_ctrls.num_reads::.cpu.inst           87092                       # Number of read requests responded to by this memory
system.mem_ctrls.num_reads::.cpu.data           69878                       # Number of read requests responded to by this memory
system.mem_ctrls.num_reads::total              156970                       # Number of read requests responded to by this memory
system.mem_ctrls.num_writes::.writebacks        34859                       # Number of write requests responded to by this memory
system.mem_ctrls.num_writes::total              34859                       # Number of write requests responded to by this memory
system.mem_ctrls.bw_read::.cpu.inst         470802699                       # Total read bandwidth from this memory (bytes/s)
system.mem_ctrls.bw_read::.cpu.data         377747106                       # Total read bandwidth from this memory (bytes/s)
system.mem_ctrls.bw_read::total             848549805                       # Total read bandwidth from this memory (bytes/s)
system.mem_ctrls.bw_inst_read::.cpu.inst    470802699                       # Instruction read bandwidth from this memory (bytes/s)
system.mem_ctrls.bw_inst_read::total        470802699                       # Instruction read bandwidth from this memory (bytes/s)
system.mem_ctrls.bw_write::.writebacks      188441088                       # Write bandwidth from this memory (bytes/s)
system.mem_ctrls.bw_write::total            188441088                       # Write bandwidth from this memory (bytes/s)
system.mem_ctrls.bw_total::.writebacks      188441088                       # Total bandwidth to/from this memory (bytes/s)
system.mem_ctrls.bw_total::.cpu.inst        470802699                       # Total bandwidth to/from this memory (bytes/s)
system.mem_ctrls.bw_total::.cpu.data        377747106                       # Total bandwidth to/from this memory (bytes/s)
system.mem_ctrls.bw_total::total           1036990894                       # Total bandwidth to/from this memory (bytes/s)
system.mem_ctrls.avgPriority_.writebacks::samples    118832.00                       # Average QoS priority value for accepted requests
system.mem_ctrls.avgPriority_.cpu.inst::samples     77172.00                       # Average QoS priority value for accepted requests
system.mem_ctrls.avgPriority_.cpu.data::samples     69372.00                       # Average QoS priority value for accepted requests
system.mem_ctrls.priorityMinLatency      0.000000018750                       # per QoS priority minimum request to response latency (s)
system.mem_ctrls.priorityMaxLatency      0.000175270500                       # per QoS priority maximum request to response latency (s)
system.mem_ctrls.numReadWriteTurnArounds         7318                       # Number of turnarounds from READ to WRITE
system.mem_ctrls.numWriteReadTurnArounds         7318                       # Number of turnarounds from WRITE to READ
system.mem_ctrls.numStayReadState              406567                       # Number of times bus staying in READ state
system.mem_ctrls.numStayWriteState             111609                       # Number of times bus staying in WRITE state
system.mem_ctrls.readReqs                      156970                       # Number of read requests accepted
system.mem_ctrls.writeReqs                     121206                       # Number of write requests accepted
system.mem_ctrls.readBursts                    156970                       # Number of DRAM read bursts, including those serviced by the write queue
system.mem_ctrls.writeBursts                   121206                       # Number of DRAM write bursts, including those merged in the write queue
system.mem_ctrls.servicedByWrQ                  10426                       # Number of DRAM read bursts serviced by the write queue
system.mem_ctrls.mergedWrBursts                  2374                       # Number of DRAM write bursts merged with an existing one
system.mem_ctrls.neitherReadNorWriteReqs            0                       # Number of requests that are neither read nor write
system.mem_ctrls.perBankRdBursts::0              8750                       # Per bank write bursts
system.mem_ctrls.perBankRdBursts::1              6625                       # Per bank write bursts
system.mem_ctrls.perBankRdBursts::2              9834                       # Per bank write bursts
system.mem_ctrls.perBankRdBursts::3              7139                       # Per bank write bursts
system.mem_ctrls.perBankRdBursts::4              8555                       # Per bank write bursts
system.mem_ctrls.perBankRdBursts::5             10049                       # Per bank write bursts
system.mem_ctrls.perBankRdBursts::6              8516                       # Per bank write bursts
system.mem_ctrls.perBankRdBursts::7              8668                       # Per bank write bursts
system.mem_ctrls.perBankRdBursts::8             11806                       # Per bank write bursts
system.mem_ctrls.perBankRdBursts::9              9223                       # Per bank write bursts
system.mem_ctrls.perBankRdBursts::10            10631                       # Per bank write bursts
system.mem_ctrls.perBankRdBursts::11            12003                       # Per bank write bursts
system.mem_ctrls.perBankRdBursts::12             8850                       # Per bank write bursts
system.mem_ctrls.perBankRdBursts::13            13505                       # Per bank write bursts
system.mem_ctrls.perBankRdBursts::14             5521                       # Per bank write bursts
system.mem_ctrls.perBankRdBursts::15             6869                       # Per bank write bursts
system.mem_ctrls.perBankWrBursts::0              7040                       # Per bank write bursts
system.mem_ctrls.perBankWrBursts::1              4453                       # Per bank write bursts
system.mem_ctrls.perBankWrBursts::2              8528                       # Per bank write bursts
system.mem_ctrls.perBankWrBursts::3              7957                       # Per bank write bursts
system.mem_ctrls.perBankWrBursts::4              7689                       # Per bank write bursts
system.mem_ctrls.perBankWrBursts::5              9833                       # Per bank write bursts
system.mem_ctrls.perBankWrBursts::6              7292                       # Per bank write bursts
system.mem_ctrls.perBankWrBursts::7              6858                       # Per bank write bursts
system.mem_ctrls.perBankWrBursts::8             10545                       # Per bank write bursts
system.mem_ctrls.perBankWrBursts::9              8377                       # Per bank write bursts
system.mem_ctrls.perBankWrBursts::10             7923                       # Per bank write bursts
system.mem_ctrls.perBankWrBursts::11             8037                       # Per bank write bursts
system.mem_ctrls.perBankWrBursts::12             5446                       # Per bank write bursts
system.mem_ctrls.perBankWrBursts::13             9926                       # Per bank write bursts
system.mem_ctrls.perBankWrBursts::14             3176                       # Per bank write bursts
system.mem_ctrls.perBankWrBursts::15             5724                       # Per bank write bursts
system.mem_ctrls.avgRdQLen                       1.09                       # Average read queue length when enqueuing
system.mem_ctrls.avgWrQLen                      25.73                       # Average write queue length when enqueuing
system.mem_ctrls.totQLat                   2010727500                       # Total ticks spent queuing
system.mem_ctrls.totBusLat                  732720000                       # Total ticks spent in databus transfers
system.mem_ctrls.totMemAccLat              4758427500                       # Total ticks spent from burst creation until serviced by the DRAM
system.mem_ctrls.avgQLat                     13720.98                       # Average queueing delay per DRAM burst
system.mem_ctrls.avgBusLat                    5000.00                       # Average bus latency per DRAM burst
system.mem_ctrls.avgMemAccLat                32470.98                       # Average memory access latency per DRAM burst
system.mem_ctrls.numRdRetry                         0                       # Number of times read queue was full causing retry
system.mem_ctrls.numWrRetry                         2                       # Number of times write queue was full causing retry
system.mem_ctrls.readRowHits                   103847                       # Number of row buffer hits during reads
system.mem_ctrls.writeRowHits                   80226                       # Number of row buffer hits during writes
system.mem_ctrls.readRowHitRate                 70.86                       # Row buffer hit rate for reads
system.mem_ctrls.writeRowHitRate                67.51                       # Row buffer hit rate for writes
system.mem_ctrls.readPktSize::0                     0                       # Read request sizes (log2)
system.mem_ctrls.readPktSize::1                     0                       # Read request sizes (log2)
system.mem_ctrls.readPktSize::2                     0                       # Read request sizes (log2)
system.mem_ctrls.readPktSize::3                     0                       # Read request sizes (log2)
system.mem_ctrls.readPktSize::4                     0                       # Read request sizes (log2)
system.mem_ctrls.readPktSize::5                     0                       # Read request sizes (log2)
system.mem_ctrls.readPktSize::6                156970                       # Read request sizes (log2)
system.mem_ctrls.writePktSize::0                    0                       # Write request sizes (log2)
system.mem_ctrls.writePktSize::1                    0                       # Write request sizes (log2)
system.mem_ctrls.writePktSize::2                    0                       # Write request sizes (log2)
system.mem_ctrls.writePktSize::3                    0                       # Write request sizes (log2)
system.mem_ctrls.writePktSize::4                    0                       # Write request sizes (log2)
system.mem_ctrls.writePktSize::5                    0                       # Write request sizes (log2)
system.mem_ctrls.writePktSize::6               121206                       # Write request sizes (log2)
system.mem_ctrls.rdQLenPdf::0                  134067                       # What read queue length does an incoming req see
system.mem_ctrls.rdQLenPdf::1                   12161                       # What read queue length does an incoming req see
system.mem_ctrls.rdQLenPdf::2                     316                       # What read queue length does an incoming req see
system.mem_ctrls.rdQLenPdf::3                       0                       # What read queue length does an incoming req see
system.mem_ctrls.rdQLenPdf::4                       0                       # What read queue length does an incoming req see
system.mem_ctrls.rdQLenPdf::5                       0                       # What read queue length does an incoming req see
system.mem_ctrls.rdQLenPdf::6                       0                       # What read queue length does an incoming req see
system.mem_ctrls.rdQLenPdf::7                       0                       # What read queue length does an incoming req see
system.mem_ctrls.rdQLenPdf::8                       0                       # What read queue length does an incoming req see
system.mem_ctrls.rdQLenPdf::9                       0                       # What read queue length does an incoming req see
system.mem_ctrls.rdQLenPdf::10                      0                       # What read queue length does an incoming req see
system.mem_ctrls.rdQLenPdf::11                      0                       # What read queue length does an incoming req see
system.mem_ctrls.rdQLenPdf::12                      0                       # What read queue length does an incoming req see
system.mem_ctrls.rdQLenPdf::13                      0                       # What read queue length does an incoming req see
system.mem_ctrls.rdQLenPdf::14                      0                       # What read queue length does an incoming req see
system.mem_ctrls.rdQLenPdf::15                      0                       # What read queue length does an incoming req see
system.mem_ctrls.rdQLenPdf::16                      0                       # What read queue length does an incoming req see
system.mem_ctrls.rdQLenPdf::17                      0                       # What read queue length does an incoming req see
system.mem_ctrls.rdQLenPdf::18                      0                       # What read queue length does an incoming req see
system.mem_ctrls.rdQLenPdf::19                      0                       # What read queue length does an incoming req see
system.mem_ctrls.rdQLenPdf::20                      0                       # What read queue length does an incoming req see
system.mem_ctrls.rdQLenPdf::21                      0                       # What read queue length does an incoming req see
system.mem_ctrls.rdQLenPdf::22                      0                       # What read queue length does an incoming req see
system.mem_ctrls.rdQLenPdf::23                      0                       # What read queue length does an incoming req see
system.mem_ctrls.rdQLenPdf::24                      0                       # What read queue length does an incoming req see
system.mem_ctrls.rdQLenPdf::25                      0                       # What read queue length does an incoming req see
system.mem_ctrls.rdQLenPdf::26                      0                       # What read queue length does an incoming req see
system.mem_ctrls.rdQLenPdf::27                      0                       # What read queue length does an incoming req see
system.mem_ctrls.rdQLenPdf::28                      0                       # What read queue length does an incoming req see
system.mem_ctrls.rdQLenPdf::29                      0                       # What read queue length does an incoming req see
system.mem_ctrls.rdQLenPdf::30                      0                       # What read queue length does an incoming req see
system.mem_ctrls.rdQLenPdf::31                      0                       # What read queue length does an incoming req see
system.mem_ctrls.wrQLenPdf::0                       1                       # What write queue length does an incoming req see
system.mem_ctrls.wrQLenPdf::1                       1                       # What write queue length does an incoming req see
system.mem_ctrls.wrQLenPdf::2                       1                       # What write queue length does an incoming req see
system.mem_ctrls.wrQLenPdf::3                       1                       # What write queue length does an incoming req see
system.mem_ctrls.wrQLenPdf::4                       1                       # What write queue length does an incoming req see
system.mem_ctrls.wrQLenPdf::5                       1                       # What write queue length does an incoming req see
system.mem_ctrls.wrQLenPdf::6                       1                       # What write queue length does an incoming req see
system.mem_ctrls.wrQLenPdf::7                       1                       # What write queue length does an incoming req see
system.mem_ctrls.wrQLenPdf::8                       1                       # What write queue length does an incoming req see
system.mem_ctrls.wrQLenPdf::9                       1                       # What write queue length does an incoming req see
system.mem_ctrls.wrQLenPdf::10                      1                       # What write queue length does an incoming req see
system.mem_ctrls.wrQLenPdf::11                      1                       # What write queue length does an incoming req see
system.mem_ctrls.wrQLenPdf::12                      1                       # What write queue length does an incoming req see
system.mem_ctrls.wrQLenPdf::13                      1                       # What write queue length does an incoming req see
system.mem_ctrls.wrQLenPdf::14                      1                       # What write queue length does an incoming req see
system.mem_ctrls.wrQLenPdf::15                    643                       # What write queue length does an incoming req see
system.mem_ctrls.wrQLenPdf::16                    733                       # What write queue length does an incoming req see
system.mem_ctrls.wrQLenPdf::17                   6682                       # What write queue length does an incoming req see
system.mem_ctrls.wrQLenPdf::18                   7331                       # What write queue length does an incoming req see
system.mem_ctrls.wrQLenPdf::19                   7433                       # What write queue length does an incoming req see
system.mem_ctrls.wrQLenPdf::20                   7393                       # What write queue length does an incoming req see
system.mem_ctrls.wrQLenPdf::21                   7414                       # What write queue length does an incoming req see
system.mem_ctrls.wrQLenPdf::22                   7493                       # What write queue length does an incoming req see
system.mem_ctrls.wrQLenPdf::23                   7405                       # What write queue length does an incoming req see
system.mem_ctrls.wrQLenPdf::24                   7402                       # What write queue length does an incoming req see
system.mem_ctrls.wrQLenPdf::25                   7372                       # What write queue length does an incoming req see
system.mem_ctrls.wrQLenPdf::26                   7412                       # What write queue length does an incoming req see
system.mem_ctrls.wrQLenPdf::27                   7371                       # What write queue length does an incoming req see
system.mem_ctrls.wrQLenPdf::28                   7347                       # What write queue length does an incoming req see
system.mem_ctrls.wrQLenPdf::29                   7359                       # What write queue length does an incoming req see
system.mem_ctrls.wrQLenPdf::30                   7322                       # What write queue length does an incoming req see
system.mem_ctrls.wrQLenPdf::31                   7317                       # What write queue length does an incoming req see
system.mem_ctrls.wrQLenPdf::32                   7317                       # What write queue length does an incoming req see
system.mem_ctrls.wrQLenPdf::33                     12                       # What write queue length does an incoming req see
system.mem_ctrls.wrQLenPdf::34                      5                       # What write queue length does an incoming req see
system.mem_ctrls.wrQLenPdf::35                      3                       # What write queue length does an incoming req see
system.mem_ctrls.wrQLenPdf::36                      2                       # What write queue length does an incoming req see
system.mem_ctrls.wrQLenPdf::37                      2                       # What write queue length does an incoming req see
system.mem_ctrls.wrQLenPdf::38                      2                       # What write queue length does an incoming req see
system.mem_ctrls.wrQLenPdf::39                      1                       # What write queue length does an incoming req see
system.mem_ctrls.wrQLenPdf::40                      1                       # What write queue length does an incoming req see
system.mem_ctrls.wrQLenPdf::41                      1                       # What write queue length does an incoming req see
system.mem_ctrls.wrQLenPdf::42                      1                       # What write queue length does an incoming req see
system.mem_ctrls.wrQLenPdf::43                      1                       # What write queue length does an incoming req see
system.mem_ctrls.wrQLenPdf::44                      1                       # What write queue length does an incoming req see
system.mem_ctrls.wrQLenPdf::45                      1                       # What write queue length does an incoming req see
system.mem_ctrls.wrQLenPdf::46                      2                       # What write queue length does an incoming req see
system.mem_ctrls.wrQLenPdf::47                      1                       # What write queue length does an incoming req see
system.mem_ctrls.wrQLenPdf::48                      1                       # What write queue length does an incoming req see
system.mem_ctrls.wrQLenPdf::49                      1                       # What write queue length does an incoming req see
system.mem_ctrls.wrQLenPdf::50                      1                       # What write queue length does an incoming req see
system.mem_ctrls.wrQLenPdf::51                      1                       # What write queue length does an incoming req see
system.mem_ctrls.wrQLenPdf::52                      1                       # What write queue length does an incoming req see
system.mem_ctrls.wrQLenPdf::53                      1                       # What write queue length does an incoming req see
system.mem_ctrls.wrQLenPdf::54                      1                       # What write queue length does an incoming req see
system.mem_ctrls.wrQLenPdf::55                      1                       # What write queue length does an incoming req see
system.mem_ctrls.wrQLenPdf::56                      1                       # What write queue length does an incoming req see
system.mem_ctrls.wrQLenPdf::57                      1                       # What write queue length does an incoming req see
system.mem_ctrls.wrQLenPdf::58                      3                       # What write queue length does an incoming req see
system.mem_ctrls.wrQLenPdf::59                      3                       # What write queue length does an incoming req see
system.mem_ctrls.wrQLenPdf::60                      4                       # What write queue length does an incoming req see
system.mem_ctrls.wrQLenPdf::61                      2                       # What write queue length does an incoming req see
system.mem_ctrls.wrQLenPdf::62                      2                       # What write queue length does an incoming req see
system.mem_ctrls.wrQLenPdf::63                     11                       # What write queue length does an incoming req see
system.mem_ctrls.bytesPerActivate::samples        81266                       # Bytes accessed per row activation
system.mem_ctrls.bytesPerActivate::mean    208.949376                       # Bytes accessed per row activation
system.mem_ctrls.bytesPerActivate::gmean   140.339536                       # Bytes accessed per row activation
system.mem_ctrls.bytesPerActivate::stdev   225.750514                       # Bytes accessed per row activation
system.mem_ctrls.bytesPerActivate::0-127        34477     42.42%     42.42% # Bytes accessed per row activation
system.mem_ctrls.bytesPerActivate::128-255        24046     29.59%     72.01% # Bytes accessed per row activation
system.mem_ctrls.bytesPerActivate::256-383         9973     12.27%     84.29% # Bytes accessed per row activation
system.mem_ctrls.bytesPerActivate::384-511         4623      5.69%     89.97% # Bytes accessed per row activation
system.mem_ctrls.bytesPerActivate::512-639         2401      2.95%     92.93% # Bytes accessed per row activation
system.mem_ctrls.bytesPerActivate::640-767         1412      1.74%     94.67% # Bytes accessed per row activation
system.mem_ctrls.bytesPerActivate::768-895          890      1.10%     95.76% # Bytes accessed per row activation
system.mem_ctrls.bytesPerActivate::896-1023          626      0.77%     96.53% # Bytes accessed per row activation
system.mem_ctrls.bytesPerActivate::1024-1151         2818      3.47%    100.00% # Bytes accessed per row activation
system.mem_ctrls.bytesPerActivate::total        81266                       # Bytes accessed per row activation
system.mem_ctrls.rdPerTurnAround::samples         7318                       # Reads before turning the bus around for writes
system.mem_ctrls.rdPerTurnAround::mean      20.023640                       # Reads before turning the bus around for writes
system.mem_ctrls.rdPerTurnAround::gmean     18.412119                       # Reads before turning the bus around for writes
system.mem_ctrls.rdPerTurnAround::stdev     12.695716                       # Reads before turning the bus around for writes
system.mem_ctrls.rdPerTurnAround::0-15           1300     17.76%     17.76% # Reads before turning the bus around for writes
system.mem_ctrls.rdPerTurnAround::16-31          5536     75.65%     93.41% # Reads before turning the bus around for writes
system.mem_ctrls.rdPerTurnAround::32-47           290      3.96%     97.38% # Reads before turning the bus around for writes
system.mem_ctrls.rdPerTurnAround::48-63            90      1.23%     98.61% # Reads before turning the bus around for writes
system.mem_ctrls.rdPerTurnAround::64-79            37      0.51%     99.11% # Reads before turning the bus around for writes
system.mem_ctrls.rdPerTurnAround::80-95            28      0.38%     99.49% # Reads before turning the bus around for writes
system.mem_ctrls.rdPerTurnAround::96-111           10      0.14%     99.63% # Reads before turning the bus around for writes
system.mem_ctrls.rdPerTurnAround::112-127           10      0.14%     99.77% # Reads before turning the bus around for writes
system.mem_ctrls.rdPerTurnAround::128-143            7      0.10%     99.86% # Reads before turning the bus around for writes
system.mem_ctrls.rdPerTurnAround::144-159            5      0.07%     99.93% # Reads before turning the bus around for writes
system.mem_ctrls.rdPerTurnAround::160-175            2      0.03%     99.96% # Reads before turning the bus around for writes
system.mem_ctrls.rdPerTurnAround::176-191            1      0.01%     99.97% # Reads before turning the bus around for writes
system.mem_ctrls.rdPerTurnAround::256-271            1      0.01%     99.99% # Reads before turning the bus around for writes
system.mem_ctrls.rdPerTurnAround::400-415            1      0.01%    100.00% # Reads before turning the bus around for writes
system.mem_ctrls.rdPerTurnAround::total          7318                       # Reads before turning the bus around for writes
system.mem_ctrls.wrPerTurnAround::samples         7318                       # Writes before turning the bus around for reads
system.mem_ctrls.wrPerTurnAround::mean      16.234490                       # Writes before turning the bus around for reads
system.mem_ctrls.wrPerTurnAround::gmean     16.219135                       # Writes before turning the bus around for reads
system.mem_ctrls.wrPerTurnAround::stdev      0.740261                       # Writes before turning the bus around for reads
system.mem_ctrls.wrPerTurnAround::16             6563     89.68%     89.68% # Writes before turning the bus around for reads
system.mem_ctrls.wrPerTurnAround::17               83      1.13%     90.82% # Writes before turning the bus around for reads
system.mem_ctrls.wrPerTurnAround::18              458      6.26%     97.08% # Writes before turning the bus around for reads
system.mem_ctrls.wrPerTurnAround::19              150      2.05%     99.13% # Writes before turning the bus around for reads
system.mem_ctrls.wrPerTurnAround::20               59      0.81%     99.93% # Writes before turning the bus around for reads
system.mem_ctrls.wrPerTurnAround::21                2      0.03%     99.96% # Writes before turning the bus around for reads
system.mem_ctrls.wrPerTurnAround::22                2      0.03%     99.99% # Writes before turning the bus around for reads
system.mem_ctrls.wrPerTurnAround::25                1      0.01%    100.00% # Writes before turning the bus around for reads
system.mem_ctrls.wrPerTurnAround::total          7318                       # Writes before turning the bus around for reads
system.mem_ctrls.bytesReadDRAM                9378816                       # Total number of bytes read from DRAM
system.mem_ctrls.bytesReadWrQ                  667264                       # Total number of bytes read from write queue
system.mem_ctrls.bytesWritten                 7603456                       # Total number of bytes written to DRAM
system.mem_ctrls.bytesReadSys                10046080                       # Total read bytes from the system interface side
system.mem_ctrls.bytesWrittenSys              7757184                       # Total written bytes from the system interface side
system.mem_ctrls.avgRdBW                       792.19                       # Average DRAM read bandwidth in MiByte/s
system.mem_ctrls.avgWrBW                       642.23                       # Average achieved write bandwidth in MiByte/s
system.mem_ctrls.avgRdBWSys                    848.55                       # Average system read bandwidth in MiByte/s
system.mem_ctrls.avgWrBWSys                    655.22                       # Average system write bandwidth in MiByte/s
system.mem_ctrls.peakBW                      12800.00                       # Theoretical peak bandwidth in MiByte/s
system.mem_ctrls.busUtil                        11.21                       # Data bus utilization in percentage
system.mem_ctrls.busUtilRead                     6.19                       # Data bus utilization in percentage for reads
system.mem_ctrls.busUtilWrite                    5.02                       # Data bus utilization in percentage for writes
system.mem_ctrls.totGap                   11839111500                       # Total gap between requests
system.mem_ctrls.avgGap                      42559.79                       # Average gap between requests
system.mem_ctrls.masterReadBytes::.cpu.inst      4939008                       # Per-master bytes read from memory
system.mem_ctrls.masterReadBytes::.cpu.data      4439808                       # Per-master bytes read from memory
system.mem_ctrls.masterWriteBytes::.writebacks      7603456                       # Per-master bytes write to memory
[...]
system.cpu.icache.tags.warmup_cycle                 0                       # Cycle when the warmup percentage was hit.
system.cpu.icache.tags.occ_blocks::.cpu.inst   511.989313                       # Average occupied blocks per requestor
system.cpu.icache.tags.occ_percent::.cpu.inst     0.999979                       # Average percentage of cache occupancy
system.cpu.icache.tags.occ_percent::total     0.999979                       # Average percentage of cache occupancy
system.cpu.icache.tags.occ_task_id_blocks::1024          512                       # Occupied blocks per task id
system.cpu.icache.tags.age_task_id_blocks_1024::0           94                       # Occupied blocks per task id
system.cpu.icache.tags.age_task_id_blocks_1024::1           60                       # Occupied blocks per task id
system.cpu.icache.tags.age_task_id_blocks_1024::2          353                       # Occupied blocks per task id
system.cpu.icache.tags.age_task_id_blocks_1024::3            5                       # Occupied blocks per task id
system.cpu.icache.tags.occ_task_id_percent::1024            1                       # Percentage of cache occupancy per task id
system.cpu.icache.tags.tag_accesses           5576345                       # Number of tag accesses
system.cpu.icache.tags.data_accesses          5576345                       # Number of data accesses
system.cpu.dcache.pwrStateResidencyTicks::UNDEFINED  11983876000                       # Cumulative time (in ticks) in various power states
system.cpu.dcache.demand_hits::.cpu.data      1833430                       # number of demand (read+write) hits
system.cpu.dcache.demand_hits::total          1833430                       # number of demand (read+write) hits
system.cpu.dcache.overall_hits::.cpu.data      1833430                       # number of overall hits
system.cpu.dcache.overall_hits::total         1833430                       # number of overall hits
system.cpu.dcache.demand_misses::.cpu.data       122570                       # number of demand (read+write) misses
system.cpu.dcache.demand_misses::total         122570                       # number of demand (read+write) misses
system.cpu.dcache.overall_misses::.cpu.data       122570                       # number of overall misses
system.cpu.dcache.overall_misses::total        122570                       # number of overall misses
system.cpu.dcache.demand_miss_latency::.cpu.data   7065662500                       # number of demand (read+write) miss cycles
system.cpu.dcache.demand_miss_latency::total   7065662500                       # number of demand (read+write) miss cycles
system.cpu.dcache.overall_miss_latency::.cpu.data   7065662500                       # number of overall miss cycles
system.cpu.dcache.overall_miss_latency::total   7065662500                       # number of overall miss cycles
system.cpu.dcache.demand_accesses::.cpu.data      1956000                       # number of demand (read+write) accesses
system.cpu.dcache.demand_accesses::total      1956000                       # number of demand (read+write) accesses
system.cpu.dcache.overall_accesses::.cpu.data      1956000                       # number of overall (read+write) accesses
system.cpu.dcache.overall_accesses::total      1956000                       # number of overall (read+write) accesses
system.cpu.dcache.demand_miss_rate::.cpu.data     0.062664                       # miss rate for demand accesses
system.cpu.dcache.demand_miss_rate::total     0.062664                       # miss rate for demand accesses
system.cpu.dcache.overall_miss_rate::.cpu.data     0.062664                       # miss rate for overall accesses
system.cpu.dcache.overall_miss_rate::total     0.062664                       # miss rate for overall accesses
system.cpu.dcache.demand_avg_miss_latency::.cpu.data 57645.937016                       # average overall miss latency
system.cpu.dcache.demand_avg_miss_latency::total 57645.937016                       # average overall miss latency
system.cpu.dcache.overall_avg_miss_latency::.cpu.data 57645.937016                       # average overall miss latency
system.cpu.dcache.overall_avg_miss_latency::total 57645.937016                       # average overall miss latency
system.cpu.dcache.blocked_cycles::no_mshrs            0                       # number of cycles access was blocked
system.cpu.dcache.blocked_cycles::no_targets            0                       # number of cycles access was blocked
system.cpu.dcache.blocked::no_mshrs                 0                       # number of cycles access was blocked
system.cpu.dcache.blocked::no_targets               0                       # number of cycles access was blocked
system.cpu.dcache.avg_blocked_cycles::no_mshrs          nan                       # average number of cycles each access was blocked
system.cpu.dcache.avg_blocked_cycles::no_targets          nan                       # average number of cycles each access was blocked
system.cpu.dcache.writebacks::.writebacks        57046                       # number of writebacks
system.cpu.dcache.writebacks::total             57046                       # number of writebacks
system.cpu.dcache.demand_mshr_hits::.cpu.data        56782                       # number of demand (read+write) MSHR hits
system.cpu.dcache.demand_mshr_hits::total        56782                       # number of demand (read+write) MSHR hits
system.cpu.dcache.overall_mshr_hits::.cpu.data        56782                       # number of overall MSHR hits
system.cpu.dcache.overall_mshr_hits::total        56782                       # number of overall MSHR hits
system.cpu.dcache.demand_mshr_misses::.cpu.data        65788                       # number of demand (read+write) MSHR misses
system.cpu.dcache.demand_mshr_misses::total        65788                       # number of demand (read+write) MSHR misses
system.cpu.dcache.overall_mshr_misses::.cpu.data        65788                       # number of overall MSHR misses
system.cpu.dcache.overall_mshr_misses::total        65788                       # number of overall MSHR misses
system.cpu.dcache.overall_mshr_uncacheable_misses::.cpu.data          257                       # number of overall MSHR uncacheable misses
system.cpu.dcache.overall_mshr_uncacheable_misses::total          257                       # number of overall MSHR uncacheable misses
system.cpu.dcache.demand_mshr_miss_latency::.cpu.data   3867602000                       # number of demand (read+write) MSHR miss cycles
system.cpu.dcache.demand_mshr_miss_latency::total   3867602000                       # number of demand (read+write) MSHR miss cycles
system.cpu.dcache.overall_mshr_miss_latency::.cpu.data   3867602000                       # number of overall MSHR miss cycles
system.cpu.dcache.overall_mshr_miss_latency::total   3867602000                       # number of overall MSHR miss cycles
system.cpu.dcache.overall_mshr_uncacheable_latency::.cpu.data     35877000                       # number of overall MSHR uncacheable cycles
system.cpu.dcache.overall_mshr_uncacheable_latency::total     35877000                       # number of overall MSHR uncacheable cycles
system.cpu.dcache.demand_mshr_miss_rate::.cpu.data     0.033634                       # mshr miss rate for demand accesses
system.cpu.dcache.demand_mshr_miss_rate::total     0.033634                       # mshr miss rate for demand accesses
system.cpu.dcache.overall_mshr_miss_rate::.cpu.data     0.033634                       # mshr miss rate for overall accesses
system.cpu.dcache.overall_mshr_miss_rate::total     0.033634                       # mshr miss rate for overall accesses
system.cpu.dcache.demand_avg_mshr_miss_latency::.cpu.data 58788.867271                       # average overall mshr miss latency
system.cpu.dcache.demand_avg_mshr_miss_latency::total 58788.867271                       # average overall mshr miss latency
system.cpu.dcache.overall_avg_mshr_miss_latency::.cpu.data 58788.867271                       # average overall mshr miss latency
system.cpu.dcache.overall_avg_mshr_miss_latency::total 58788.867271                       # average overall mshr miss latency
system.cpu.dcache.overall_avg_mshr_uncacheable_latency::.cpu.data 139599.221790                       # average overall mshr uncacheable latency
system.cpu.dcache.overall_avg_mshr_uncacheable_latency::total 139599.221790                       # average overall mshr uncacheable latency
system.cpu.dcache.replacements                  66111                       # number of replacements
system.cpu.dcache.ReadReq_hits::.cpu.data       997089                       # number of ReadReq hits
system.cpu.dcache.ReadReq_hits::total          997089                       # number of ReadReq hits
system.cpu.dcache.ReadReq_misses::.cpu.data        12731                       # number of ReadReq misses
system.cpu.dcache.ReadReq_misses::total         12731                       # number of ReadReq misses
system.cpu.dcache.ReadReq_miss_latency::.cpu.data    848080000                       # number of ReadReq miss cycles
system.cpu.dcache.ReadReq_miss_latency::total    848080000                       # number of ReadReq miss cycles
system.cpu.dcache.ReadReq_accesses::.cpu.data      1009820                       # number of ReadReq accesses(hits+misses)
system.cpu.dcache.ReadReq_accesses::total      1009820                       # number of ReadReq accesses(hits+misses)
system.cpu.dcache.ReadReq_miss_rate::.cpu.data     0.012607                       # miss rate for ReadReq accesses
system.cpu.dcache.ReadReq_miss_rate::total     0.012607                       # miss rate for ReadReq accesses
system.cpu.dcache.ReadReq_avg_miss_latency::.cpu.data 66615.348362                       # average ReadReq miss latency
system.cpu.dcache.ReadReq_avg_miss_latency::total 66615.348362                       # average ReadReq miss latency
system.cpu.dcache.ReadReq_mshr_hits::.cpu.data         2212                       # number of ReadReq MSHR hits
system.cpu.dcache.ReadReq_mshr_hits::total         2212                       # number of ReadReq MSHR hits
system.cpu.dcache.ReadReq_mshr_misses::.cpu.data        10519                       # number of ReadReq MSHR misses
system.cpu.dcache.ReadReq_mshr_misses::total        10519                       # number of ReadReq MSHR misses
system.cpu.dcache.ReadReq_mshr_uncacheable::.cpu.data          165                       # number of ReadReq MSHR uncacheable
system.cpu.dcache.ReadReq_mshr_uncacheable::total          165                       # number of ReadReq MSHR uncacheable
system.cpu.dcache.ReadReq_mshr_miss_latency::.cpu.data    701362500                       # number of ReadReq MSHR miss cycles
system.cpu.dcache.ReadReq_mshr_miss_latency::total    701362500                       # number of ReadReq MSHR miss cycles
system.cpu.dcache.ReadReq_mshr_uncacheable_latency::.cpu.data     35877000                       # number of ReadReq MSHR uncacheable cycles
system.cpu.dcache.ReadReq_mshr_uncacheable_latency::total     35877000                       # number of ReadReq MSHR uncacheable cycles
system.cpu.dcache.ReadReq_mshr_miss_rate::.cpu.data     0.010417                       # mshr miss rate for ReadReq accesses
system.cpu.dcache.ReadReq_mshr_miss_rate::total     0.010417                       # mshr miss rate for ReadReq accesses
system.cpu.dcache.ReadReq_avg_mshr_miss_latency::.cpu.data 66675.777165                       # average ReadReq mshr miss latency
system.cpu.dcache.ReadReq_avg_mshr_miss_latency::total 66675.777165                       # average ReadReq mshr miss latency
system.cpu.dcache.ReadReq_avg_mshr_uncacheable_latency::.cpu.data 217436.363636                       # average ReadReq mshr uncacheable latency
system.cpu.dcache.ReadReq_avg_mshr_uncacheable_latency::total 217436.363636                       # average ReadReq mshr uncacheable latency
system.cpu.dcache.WriteReq_hits::.cpu.data       836341                       # number of WriteReq hits
system.cpu.dcache.WriteReq_hits::total         836341                       # number of WriteReq hits
system.cpu.dcache.WriteReq_misses::.cpu.data       109839                       # number of WriteReq misses
system.cpu.dcache.WriteReq_misses::total       109839                       # number of WriteReq misses
system.cpu.dcache.WriteReq_miss_latency::.cpu.data   6217582500                       # number of WriteReq miss cycles
system.cpu.dcache.WriteReq_miss_latency::total   6217582500                       # number of WriteReq miss cycles
system.cpu.dcache.WriteReq_accesses::.cpu.data       946180                       # number of WriteReq accesses(hits+misses)
system.cpu.dcache.WriteReq_accesses::total       946180                       # number of WriteReq accesses(hits+misses)
system.cpu.dcache.WriteReq_miss_rate::.cpu.data     0.116087                       # miss rate for WriteReq accesses
system.cpu.dcache.WriteReq_miss_rate::total     0.116087                       # miss rate for WriteReq accesses
system.cpu.dcache.WriteReq_avg_miss_latency::.cpu.data 56606.328353                       # average WriteReq miss latency
system.cpu.dcache.WriteReq_avg_miss_latency::total 56606.328353                       # average WriteReq miss latency
system.cpu.dcache.WriteReq_mshr_hits::.cpu.data        54570                       # number of WriteReq MSHR hits
system.cpu.dcache.WriteReq_mshr_hits::total        54570                       # number of WriteReq MSHR hits
system.cpu.dcache.WriteReq_mshr_misses::.cpu.data        55269                       # number of WriteReq MSHR misses
system.cpu.dcache.WriteReq_mshr_misses::total        55269                       # number of WriteReq MSHR misses
system.cpu.dcache.WriteReq_mshr_uncacheable::.cpu.data           92                       # number of WriteReq MSHR uncacheable
system.cpu.dcache.WriteReq_mshr_uncacheable::total           92                       # number of WriteReq MSHR uncacheable
system.cpu.dcache.WriteReq_mshr_miss_latency::.cpu.data   3166239500                       # number of WriteReq MSHR miss cycles
system.cpu.dcache.WriteReq_mshr_miss_latency::total   3166239500                       # number of WriteReq MSHR miss cycles
system.cpu.dcache.WriteReq_mshr_miss_rate::.cpu.data     0.058413                       # mshr miss rate for WriteReq accesses
system.cpu.dcache.WriteReq_mshr_miss_rate::total     0.058413                       # mshr miss rate for WriteReq accesses
system.cpu.dcache.WriteReq_avg_mshr_miss_latency::.cpu.data 57287.801480                       # average WriteReq mshr miss latency
system.cpu.dcache.WriteReq_avg_mshr_miss_latency::total 57287.801480                       # average WriteReq mshr miss latency
system.cpu.dcache.LoadLockedReq_hits::.cpu.data         4502                       # number of LoadLockedReq hits
system.cpu.dcache.LoadLockedReq_hits::total         4502                       # number of LoadLockedReq hits
system.cpu.dcache.LoadLockedReq_misses::.cpu.data          325                       # number of LoadLockedReq misses
system.cpu.dcache.LoadLockedReq_misses::total          325                       # number of LoadLockedReq misses
system.cpu.dcache.LoadLockedReq_miss_latency::.cpu.data     22992500                       # number of LoadLockedReq miss cycles
system.cpu.dcache.LoadLockedReq_miss_latency::total     22992500                       # number of LoadLockedReq miss cycles
system.cpu.dcache.LoadLockedReq_accesses::.cpu.data         4827                       # number of LoadLockedReq accesses(hits+misses)
system.cpu.dcache.LoadLockedReq_accesses::total         4827                       # number of LoadLockedReq accesses(hits+misses)
system.cpu.dcache.LoadLockedReq_miss_rate::.cpu.data     0.067330                       # miss rate for LoadLockedReq accesses
system.cpu.dcache.LoadLockedReq_miss_rate::total     0.067330                       # miss rate for LoadLockedReq accesses
system.cpu.dcache.LoadLockedReq_avg_miss_latency::.cpu.data 70746.153846                       # average LoadLockedReq miss latency
system.cpu.dcache.LoadLockedReq_avg_miss_latency::total 70746.153846                       # average LoadLockedReq miss latency
system.cpu.dcache.LoadLockedReq_mshr_misses::.cpu.data          325                       # number of LoadLockedReq MSHR misses
system.cpu.dcache.LoadLockedReq_mshr_misses::total          325                       # number of LoadLockedReq MSHR misses
system.cpu.dcache.LoadLockedReq_mshr_miss_latency::.cpu.data     22667500                       # number of LoadLockedReq MSHR miss cycles
system.cpu.dcache.LoadLockedReq_mshr_miss_latency::total     22667500                       # number of LoadLockedReq MSHR miss cycles
system.cpu.dcache.LoadLockedReq_mshr_miss_rate::.cpu.data     0.067330                       # mshr miss rate for LoadLockedReq accesses
system.cpu.dcache.LoadLockedReq_mshr_miss_rate::total     0.067330                       # mshr miss rate for LoadLockedReq accesses
system.cpu.dcache.LoadLockedReq_avg_mshr_miss_latency::.cpu.data 69746.153846                       # average LoadLockedReq mshr miss latency
system.cpu.dcache.LoadLockedReq_avg_mshr_miss_latency::total 69746.153846                       # average LoadLockedReq mshr miss latency
system.cpu.dcache.StoreCondReq_hits::.cpu.data         4776                       # number of StoreCondReq hits
system.cpu.dcache.StoreCondReq_hits::total         4776                       # number of StoreCondReq hits
system.cpu.dcache.StoreCondReq_accesses::.cpu.data         4776                       # number of StoreCondReq accesses(hits+misses)
system.cpu.dcache.StoreCondReq_accesses::total         4776                       # number of StoreCondReq accesses(hits+misses)
system.cpu.dcache.tags.pwrStateResidencyTicks::UNDEFINED  11983876000                       # Cumulative time (in ticks) in various power states
system.cpu.dcache.tags.tagsinuse                 1024                       # Cycle average of tags in use
system.cpu.dcache.tags.total_refs             7473339                       # Total number of references to valid blocks.
system.cpu.dcache.tags.sampled_refs             67135                       # Sample count of references to valid blocks.
system.cpu.dcache.tags.avg_refs            111.318076                       # Average number of references to valid blocks.
system.cpu.dcache.tags.warmup_cycle                 0                       # Cycle when the warmup percentage was hit.
system.cpu.dcache.tags.occ_blocks::.cpu.data         1024                       # Average occupied blocks per requestor
system.cpu.dcache.tags.occ_percent::.cpu.data            1                       # Average percentage of cache occupancy
system.cpu.dcache.tags.occ_percent::total            1                       # Average percentage of cache occupancy
system.cpu.dcache.tags.occ_task_id_blocks::1024         1024                       # Occupied blocks per task id
system.cpu.dcache.tags.age_task_id_blocks_1024::0           42                       # Occupied blocks per task id
system.cpu.dcache.tags.age_task_id_blocks_1024::1          838                       # Occupied blocks per task id
system.cpu.dcache.tags.age_task_id_blocks_1024::2          132                       # Occupied blocks per task id
system.cpu.dcache.tags.age_task_id_blocks_1024::3           12                       # Occupied blocks per task id
system.cpu.dcache.tags.occ_task_id_percent::1024            1                       # Percentage of cache occupancy per task id
system.cpu.dcache.tags.tag_accesses           3997317                       # Number of tag accesses
system.cpu.dcache.tags.data_accesses          3997317                       # Number of data accesses

---------- End Simulation Statistics   ----------
