
---------- Begin Simulation Statistics ----------
final_tick                               2541671578500                       # Number of ticks from beginning of simulation (restored from checkpoints and never reset)
host_inst_rate                                 196932                       # Simulator instruction rate (inst/s)
host_mem_usage                                 748868                       # Number of bytes of host memory used
host_op_rate                                   196931                       # Simulator op (including micro ops) rate (op/s)
host_seconds                                    21.29                       # Real time elapsed on the host
host_tick_rate                              547770144                       # Simulator tick rate (ticks/s)
sim_freq                                 1000000000000                       # Frequency of simulated ticks
sim_insts                                     4192548                       # Number of instructions simulated
sim_ops                                       4192548                       # Number of ops (including micro ops) simulated
sim_seconds                                  0.011662                       # Number of seconds simulated
sim_ticks                                 11661733500                       # Number of ticks simulated
system.cpu.branchPred.BTBCorrect                    0                       # Number of correct BTB predictions (this stat may not work properly.
system.cpu.branchPred.BTBHitPct             60.365895                       # BTB Hit Percentage
system.cpu.branchPred.BTBHits                  327785                       # Number of BTB hits
system.cpu.branchPred.BTBLookups               542997                       # Number of BTB lookups
system.cpu.branchPred.RASInCorrect               2642                       # Number of incorrect RAS predictions.
system.cpu.branchPred.condIncorrect             56899                       # Number of conditional branches incorrect
system.cpu.branchPred.condPredicted            864339                       # Number of conditional branches predicted
system.cpu.branchPred.indirectHits              46829                       # Number of indirect target hits.
system.cpu.branchPred.indirectLookups          179033                       # Number of indirect predictor lookups.
system.cpu.branchPred.indirectMisses           132204                       # Number of indirect misses.
system.cpu.branchPred.lookups                 1036182                       # Number of BP lookups
system.cpu.branchPred.loop_predictor.loopPredictorCorrect       643444                       # Number of times the loop predictor is the provider and the prediction is correct
system.cpu.branchPred.loop_predictor.loopPredictorWrong       144818                       # Number of times the loop predictor is the provider and the prediction is wrong
system.cpu.branchPred.tage.bimodalAltMatchProviderCorrect         1651                       # Number of times TAGE Alt Match is the bimodal and it is the provider and the prediction is correct
system.cpu.branchPred.tage.bimodalAltMatchProviderWrong          644                       # Number of times TAGE Alt Match is the bimodal and it is the provider and the prediction is wrong
system.cpu.branchPred.tage.tageAltMatchProvider::0       120099                       # TAGE provider for alt match
system.cpu.branchPred.tage.tageAltMatchProvider::1        16780                       # TAGE provider for alt match
system.cpu.branchPred.tage.tageAltMatchProvider::2        14384                       # TAGE provider for alt match
system.cpu.branchPred.tage.tageAltMatchProvider::3        33560                       # TAGE provider for alt match
system.cpu.branchPred.tage.tageAltMatchProvider::4        16886                       # TAGE provider for alt match
system.cpu.branchPred.tage.tageAltMatchProvider::5        13069                       # TAGE provider for alt match
system.cpu.branchPred.tage.tageAltMatchProvider::6         3636                       # TAGE provider for alt match
system.cpu.branchPred.tage.tageAltMatchProvider::7         4308                       # TAGE provider for alt match
system.cpu.branchPred.tage.tageAltMatchProvider::8         1216                       # TAGE provider for alt match
system.cpu.branchPred.tage.tageAltMatchProvider::9          505                       # TAGE provider for alt match
system.cpu.branchPred.tage.tageAltMatchProvider::10          183                       # TAGE provider for alt match
system.cpu.branchPred.tage.tageAltMatchProvider::11          250                       # TAGE provider for alt match
system.cpu.branchPred.tage.tageAltMatchProvider::12            0                       # TAGE provider for alt match
system.cpu.branchPred.tage.tageAltMatchProviderCorrect         3733                       # Number of times TAGE Alt Match is the provider and the prediction is correct
system.cpu.branchPred.tage.tageAltMatchProviderWouldHaveHit         4358                       # Number of times TAGE Longest Match is the provider, the prediction is wrong and Alt Match prediction was correct
system.cpu.branchPred.tage.tageAltMatchProviderWrong         2067                       # Number of times TAGE Alt Match is the provider and the prediction is wrong
system.cpu.branchPred.tage.tageBimodalProviderCorrect       553925                       # Number of times there are no hits on the TAGE tables and the bimodal prediction is correct
system.cpu.branchPred.tage.tageBimodalProviderWrong         7166                       # Number of times there are no hits on the TAGE tables and the bimodal prediction is wrong
system.cpu.branchPred.tage.tageLongestMatchProvider::0            0                       # TAGE provider for longest match
system.cpu.branchPred.tage.tageLongestMatchProvider::1        48582                       # TAGE provider for longest match
system.cpu.branchPred.tage.tageLongestMatchProvider::2        36640                       # TAGE provider for longest match
system.cpu.branchPred.tage.tageLongestMatchProvider::3        32966                       # TAGE provider for longest match
system.cpu.branchPred.tage.tageLongestMatchProvider::4        30101                       # TAGE provider for longest match
system.cpu.branchPred.tage.tageLongestMatchProvider::5        37458                       # TAGE provider for longest match
system.cpu.branchPred.tage.tageLongestMatchProvider::6        13229                       # TAGE provider for longest match
system.cpu.branchPred.tage.tageLongestMatchProvider::7         8428                       # TAGE provider for longest match
system.cpu.branchPred.tage.tageLongestMatchProvider::8        13929                       # TAGE provider for longest match
system.cpu.branchPred.tage.tageLongestMatchProvider::9         2334                       # TAGE provider for longest match
system.cpu.branchPred.tage.tageLongestMatchProvider::10          706                       # TAGE provider for longest match
system.cpu.branchPred.tage.tageLongestMatchProvider::11          234                       # TAGE provider for longest match
system.cpu.branchPred.tage.tageLongestMatchProvider::12          269                       # TAGE provider for longest match
system.cpu.branchPred.tage.tageLongestMatchProviderCorrect       207867                       # Number of times TAGE Longest Match is the provider and the prediction is correct
system.cpu.branchPred.tage.tageLongestMatchProviderWouldHaveHit         1747                       # Number of times TAGE Alt Match is the provider, the prediction is wrong and Longest Match prediction was correct
system.cpu.branchPred.tage.tageLongestMatchProviderWrong        11209                       # Number of times TAGE Longest Match is the provider and the prediction is wrong
system.cpu.branchPred.usedRAS                   63046                       # Number of times the RAS was used to get a target.
system.cpu.branchPredindirectMispredicted        25417                       # Number of mispredicted indirect branches.
system.cpu.committedInsts                     4192548                       # Number of instructions committed
system.cpu.committedOps                       4192548                       # Number of ops (including micro ops) committed
system.cpu.cpi                               5.559843                       # CPI: cycles per instruction
system.cpu.discardedOps                        186620                       # Number of ops (including micro ops) which were discarded before commit
system.cpu.dtb.data_accesses                   605806                       # DTB accesses
system.cpu.dtb.data_acv                           131                       # DTB access violations
system.cpu.dtb.data_hits                      1449003                       # DTB hits
system.cpu.dtb.data_misses                       7562                       # DTB misses
system.cpu.dtb.fetch_accesses                       0                       # ITB accesses
system.cpu.dtb.fetch_acv                            0                       # ITB acv
system.cpu.dtb.fetch_hits                           0                       # ITB hits
system.cpu.dtb.fetch_misses                         0                       # ITB misses
system.cpu.dtb.read_accesses                   404877                       # DTB read accesses
system.cpu.dtb.read_acv                            43                       # DTB read access violations
system.cpu.dtb.read_hits                       847272                       # DTB read hits
system.cpu.dtb.read_misses                       6756                       # DTB read misses
system.cpu.dtb.write_accesses                  200929                       # DTB write accesses
system.cpu.dtb.write_acv                           88                       # DTB write access violations
system.cpu.dtb.write_hits                      601731                       # DTB write hits
system.cpu.dtb.write_misses                       806                       # DTB write misses
system.cpu.fetch2.amo_instructions                  0                       # Number of memory atomic instructions successfully decoded
system.cpu.fetch2.fp_instructions               18066                       # Number of floating point instructions successfully decoded
system.cpu.fetch2.int_instructions            3384171                       # Number of integer instructions successfully decoded
system.cpu.fetch2.load_instructions           1022161                       # Number of memory load instructions successfully decoded
system.cpu.fetch2.store_instructions           653445                       # Number of memory store instructions successfully decoded
system.cpu.fetch2.vec_instructions                  0                       # Number of SIMD instructions successfully decoded
system.cpu.idleCycles                        16641709                       # Total number of cycles that the object has spent stopped
system.cpu.ipc                               0.179861                       # IPC: instructions per cycle
system.cpu.itb.data_accesses                        0                       # DTB accesses
system.cpu.itb.data_acv                             0                       # DTB access violations
system.cpu.itb.data_hits                            0                       # DTB hits
system.cpu.itb.data_misses                          0                       # DTB misses
system.cpu.itb.fetch_accesses                  891195                       # ITB accesses
system.cpu.itb.fetch_acv                          639                       # ITB acv
system.cpu.itb.fetch_hits                      885224                       # ITB hits
system.cpu.itb.fetch_misses                      5971                       # ITB misses
system.cpu.itb.read_accesses                        0                       # DTB read accesses
system.cpu.itb.read_acv                             0                       # DTB read access violations
system.cpu.itb.read_hits                            0                       # DTB read hits
system.cpu.itb.read_misses                          0                       # DTB read misses
system.cpu.itb.write_accesses                       0                       # DTB write accesses
system.cpu.itb.write_acv                            0                       # DTB write access violations
system.cpu.itb.write_hits                           0                       # DTB write hits
system.cpu.itb.write_misses                         0                       # DTB write misses
system.cpu.kern.callpal::swpctx                   574      9.46%      9.46% # number of callpals executed
system.cpu.kern.callpal::tbi                       25      0.41%      9.87% # number of callpals executed
system.cpu.kern.callpal::swpipl                  4203     69.29%     79.16% # number of callpals executed
system.cpu.kern.callpal::rdps                      48      0.79%     79.95% # number of callpals executed
system.cpu.kern.callpal::wrusp                      4      0.07%     80.02% # number of callpals executed
system.cpu.kern.callpal::rdusp                      3      0.05%     80.07% # number of callpals executed
system.cpu.kern.callpal::rti                      896     14.77%     94.84% # number of callpals executed
system.cpu.kern.callpal::callsys                  235      3.87%     98.71% # number of callpals executed
system.cpu.kern.callpal::imb                       78      1.29%    100.00% # number of callpals executed
system.cpu.kern.callpal::total                   6066                       # number of callpals executed
system.cpu.kern.inst.arm                            0                       # number of arm instructions executed
system.cpu.kern.inst.hwrei                      14409                       # number of hwrei instructions executed
system.cpu.kern.inst.quiesce                        9                       # number of quiesce instructions executed
system.cpu.kern.ipl_count::0                     2425     47.40%     47.40% # number of times we switched to this ipl
system.cpu.kern.ipl_count::21                       5      0.10%     47.50% # number of times we switched to this ipl
system.cpu.kern.ipl_count::22                      12      0.23%     47.73% # number of times we switched to this ipl
system.cpu.kern.ipl_count::31                    2674     52.27%    100.00% # number of times we switched to this ipl
system.cpu.kern.ipl_count::total                 5116                       # number of times we switched to this ipl
system.cpu.kern.ipl_good::0                      2412     49.82%     49.82% # number of times we switched to this ipl from a different ipl
system.cpu.kern.ipl_good::21                        5      0.10%     49.93% # number of times we switched to this ipl from a different ipl
system.cpu.kern.ipl_good::22                       12      0.25%     50.18% # number of times we switched to this ipl from a different ipl
system.cpu.kern.ipl_good::31                     2412     49.82%    100.00% # number of times we switched to this ipl from a different ipl
system.cpu.kern.ipl_good::total                  4841                       # number of times we switched to this ipl from a different ipl
system.cpu.kern.ipl_ticks::0              10758301500     92.22%     92.22% # number of cycles we spent at this ipl
system.cpu.kern.ipl_ticks::21                 9315000      0.08%     92.30% # number of cycles we spent at this ipl
system.cpu.kern.ipl_ticks::22                18221500      0.16%     92.45% # number of cycles we spent at this ipl
system.cpu.kern.ipl_ticks::31               880451000      7.55%    100.00% # number of cycles we spent at this ipl
system.cpu.kern.ipl_ticks::total          11666289000                       # number of cycles we spent at this ipl
system.cpu.kern.ipl_used::0                  0.994639                       # fraction of swpipl calls that actually changed the ipl
system.cpu.kern.ipl_used::21                        1                       # fraction of swpipl calls that actually changed the ipl
system.cpu.kern.ipl_used::22                        1                       # fraction of swpipl calls that actually changed the ipl
system.cpu.kern.ipl_used::31                 0.902019                       # fraction of swpipl calls that actually changed the ipl
system.cpu.kern.ipl_used::total              0.946247                       # fraction of swpipl calls that actually changed the ipl
system.cpu.kern.mode_good::kernel                 872                      
system.cpu.kern.mode_good::user                   872                      
system.cpu.kern.mode_good::idle                     0                      
system.cpu.kern.mode_switch::kernel              1470                       # number of protection mode switches
system.cpu.kern.mode_switch::user                 872                       # number of protection mode switches
system.cpu.kern.mode_switch::idle                   0                       # number of protection mode switches
system.cpu.kern.mode_switch_good::kernel     0.593197                       # fraction of useful protection mode switches
system.cpu.kern.mode_switch_good::user              1                       # fraction of useful protection mode switches
system.cpu.kern.mode_switch_good::idle            nan                       # fraction of useful protection mode switches
system.cpu.kern.mode_switch_good::total      0.744663                       # fraction of useful protection mode switches
system.cpu.kern.mode_ticks::kernel         7921590000     67.90%     67.90% # number of ticks spent at the given mode
system.cpu.kern.mode_ticks::user           3744699000     32.10%    100.00% # number of ticks spent at the given mode
system.cpu.kern.mode_ticks::idle                    0      0.00%    100.00% # number of ticks spent at the given mode
system.cpu.kern.swap_context                      574                       # number of times the context was actually changed
system.cpu.numCycles                         23309909                       # number of cpu cycles simulated
system.cpu.numFetchSuspends                         9                       # Number of times Execute suspended instruction fetching
system.cpu.numWorkItemsCompleted                    0                       # number of work items this cpu completed
system.cpu.numWorkItemsStarted                      0                       # number of work items this cpu started
system.cpu.op_class_0::No_OpClass               85374      2.04%      2.04% # Class of committed instruction
system.cpu.op_class_0::IntAlu                 2539468     60.57%     62.61% # Class of committed instruction
system.cpu.op_class_0::IntMult                   3673      0.09%     62.69% # Class of committed instruction
system.cpu.op_class_0::IntDiv                       0      0.00%     62.69% # Class of committed instruction
system.cpu.op_class_0::FloatAdd                  8286      0.20%     62.89% # Class of committed instruction
system.cpu.op_class_0::FloatCmp                     0      0.00%     62.89% # Class of committed instruction
system.cpu.op_class_0::FloatCvt                     0      0.00%     62.89% # Class of committed instruction
system.cpu.op_class_0::FloatMult                    0      0.00%     62.89% # Class of committed instruction
system.cpu.op_class_0::FloatMultAcc                 0      0.00%     62.89% # Class of committed instruction
system.cpu.op_class_0::FloatDiv                  1593      0.04%     62.93% # Class of committed instruction
system.cpu.op_class_0::FloatMisc                    0      0.00%     62.93% # Class of committed instruction
system.cpu.op_class_0::FloatSqrt                    0      0.00%     62.93% # Class of committed instruction
system.cpu.op_class_0::SimdAdd                      0      0.00%     62.93% # Class of committed instruction
system.cpu.op_class_0::SimdAddAcc                   0      0.00%     62.93% # Class of committed instruction
system.cpu.op_class_0::SimdAlu                      0      0.00%     62.93% # Class of committed instruction
system.cpu.op_class_0::SimdCmp                      0      0.00%     62.93% # Class of committed instruction
system.cpu.op_class_0::SimdCvt                      0      0.00%     62.93% # Class of committed instruction
system.cpu.op_class_0::SimdMisc                     0      0.00%     62.93% # Class of committed instruction
system.cpu.op_class_0::SimdMult                     0      0.00%     62.93% # Class of committed instruction
system.cpu.op_class_0::SimdMultAcc                  0      0.00%     62.93% # Class of committed instruction
system.cpu.op_class_0::SimdShift                    0      0.00%     62.93% # Class of committed instruction
system.cpu.op_class_0::SimdShiftAcc                 0      0.00%     62.93% # Class of committed instruction
system.cpu.op_class_0::SimdDiv                      0      0.00%     62.93% # Class of committed instruction
system.cpu.op_class_0::SimdSqrt                     0      0.00%     62.93% # Class of committed instruction
system.cpu.op_class_0::SimdFloatAdd                 0      0.00%     62.93% # Class of committed instruction
system.cpu.op_class_0::SimdFloatAlu                 0      0.00%     62.93% # Class of committed instruction
system.cpu.op_class_0::SimdFloatCmp                 0      0.00%     62.93% # Class of committed instruction
system.cpu.op_class_0::SimdFloatCvt                 0      0.00%     62.93% # Class of committed instruction
system.cpu.op_class_0::SimdFloatDiv                 0      0.00%     62.93% # Class of committed instruction
system.cpu.op_class_0::SimdFloatMisc                0      0.00%     62.93% # Class of committed instruction
system.cpu.op_class_0::SimdFloatMult                0      0.00%     62.93% # Class of committed instruction
system.cpu.op_class_0::SimdFloatMultAcc             0      0.00%     62.93% # Class of committed instruction
system.cpu.op_class_0::SimdFloatSqrt                0      0.00%     62.93% # Class of committed instruction
system.cpu.op_class_0::SimdReduceAdd                0      0.00%     62.93% # Class of committed instruction
system.cpu.op_class_0::SimdReduceAlu                0      0.00%     62.93% # Class of committed instruction
system.cpu.op_class_0::SimdReduceCmp                0      0.00%     62.93% # Class of committed instruction
system.cpu.op_class_0::SimdFloatReduceAdd            0      0.00%     62.93% # Class of committed instruction
system.cpu.op_class_0::SimdFloatReduceCmp            0      0.00%     62.93% # Class of committed instruction
system.cpu.op_class_0::SimdAes                      0      0.00%     62.93% # Class of committed instruction
system.cpu.op_class_0::SimdAesMix                   0      0.00%     62.93% # Class of committed instruction
system.cpu.op_class_0::SimdSha1Hash                 0      0.00%     62.93% # Class of committed instruction
system.cpu.op_class_0::SimdSha1Hash2                0      0.00%     62.93% # Class of committed instruction
system.cpu.op_class_0::SimdSha256Hash               0      0.00%     62.93% # Class of committed instruction
system.cpu.op_class_0::SimdSha256Hash2              0      0.00%     62.93% # Class of committed instruction
system.cpu.op_class_0::SimdShaSigma2                0      0.00%     62.93% # Class of committed instruction
system.cpu.op_class_0::SimdShaSigma3                0      0.00%     62.93% # Class of committed instruction
system.cpu.op_class_0::SimdPredAlu                  0      0.00%     62.93% # Class of committed instruction
system.cpu.op_class_0::MemRead                 838508     20.00%     82.93% # Class of committed instruction
system.cpu.op_class_0::MemWrite                592075     14.12%     97.05% # Class of committed instruction
system.cpu.op_class_0::FloatMemRead              9988      0.24%     97.29% # Class of committed instruction
system.cpu.op_class_0::FloatMemWrite             8788      0.21%     97.50% # Class of committed instruction
system.cpu.op_class_0::IprAccess               104795      2.50%    100.00% # Class of committed instruction
system.cpu.op_class_0::InstPrefetch                 0      0.00%    100.00% # Class of committed instruction
system.cpu.op_class_0::total                  4192548                       # Class of committed instruction
system.cpu.quiesceCycles                        13558                       # Total number of cycles that CPU has spent quiesced or waiting for an interrupt
system.cpu.tickCycles                         6668200                       # Number of cycles that the object actually ticked
system.disk0.dma_read_bytes                         0                       # Number of bytes transfered via DMA reads (not PRD).
system.disk0.dma_read_full_pages                    0                       # Number of full page size DMA reads (not PRD).
system.disk0.dma_read_txs                           0                       # Number of DMA read transactions (not PRD).
system.disk0.dma_write_bytes                    12288                       # Number of bytes transfered via DMA writes.
system.disk0.dma_write_full_pages                   0                       # Number of full page size DMA writes.
system.disk0.dma_write_txs                          3                       # Number of DMA write transactions.
system.disk2.dma_read_bytes                         0                       # Number of bytes transfered via DMA reads (not PRD).
system.disk2.dma_read_full_pages                    0                       # Number of full page size DMA reads (not PRD).
system.disk2.dma_read_txs                           0                       # Number of DMA read transactions (not PRD).
system.disk2.dma_write_bytes                        0                       # Number of bytes transfered via DMA writes.
system.disk2.dma_write_full_pages                   0                       # Number of full page size DMA writes.
system.disk2.dma_write_txs                          0                       # Number of DMA write transactions.
system.membus.snoop_filter.hit_multi_requests          434                       # Number of requests hitting in the snoop filter with multiple (>1) holders of the requested data.
system.membus.snoop_filter.hit_multi_snoops            0                       # Number of snoops hitting in the snoop filter with multiple (>1) holders of the requested data.
system.membus.snoop_filter.hit_single_requests       154755                       # Number of requests hitting in the snoop filter with a single holder of the requested data.
system.membus.snoop_filter.hit_single_snoops            0                       # Number of snoops hitting in the snoop filter with a single holder of the requested data.
system.membus.snoop_filter.tot_requests        311113                       # Total number of requests made to the snoop filter.
system.membus.snoop_filter.tot_snoops               0                       # Total number of snoops made to the snoop filter.
system.tsunami.ethernet.coalescedRxDesc           nan                       # average number of RxDesc's coalesced into each post
system.tsunami.ethernet.coalescedRxIdle           nan                       # average number of RxIdle's coalesced into each post
system.tsunami.ethernet.coalescedRxOk             nan                       # average number of RxOk's coalesced into each post
system.tsunami.ethernet.coalescedRxOrn            nan                       # average number of RxOrn's coalesced into each post
system.tsunami.ethernet.coalescedSwi              nan                       # average number of Swi's coalesced into each post
system.tsunami.ethernet.coalescedTotal            nan                       # average number of interrupts coalesced into each post
system.tsunami.ethernet.coalescedTxDesc           nan                       # average number of TxDesc's coalesced into each post
system.tsunami.ethernet.coalescedTxIdle           nan                       # average number of TxIdle's coalesced into each post
system.tsunami.ethernet.coalescedTxOk             nan                       # average number of TxOk's coalesced into each post
system.tsunami.ethernet.descDMAReads                0                       # Number of descriptors the device read w/ DMA
system.tsunami.ethernet.descDMAWrites               0                       # Number of descriptors the device wrote w/ DMA
system.tsunami.ethernet.descDmaReadBytes            0                       # number of descriptor bytes read w/ DMA
system.tsunami.ethernet.descDmaWriteBytes            0                       # number of descriptor bytes write w/ DMA
system.tsunami.ethernet.droppedPackets              0                       # number of packets dropped
system.tsunami.ethernet.postedInterrupts            0                       # number of posts to CPU
system.tsunami.ethernet.postedRxDesc                0                       # number of RxDesc interrupts posted to CPU
system.tsunami.ethernet.postedRxIdle                0                       # number of rxIdle interrupts posted to CPU
system.tsunami.ethernet.postedRxOk                  0                       # number of RxOk interrupts posted to CPU
system.tsunami.ethernet.postedRxOrn                 0                       # number of RxOrn posted to CPU
system.tsunami.ethernet.postedSwi                   0                       # number of software interrupts posted to CPU
system.tsunami.ethernet.postedTxDesc                0                       # number of TxDesc interrupts posted to CPU
system.tsunami.ethernet.postedTxIdle                0                       # number of TxIdle interrupts posted to CPU
system.tsunami.ethernet.postedTxOk                  0                       # number of TxOk interrupts posted to CPU
system.tsunami.ethernet.totalRxDesc                 0                       # total number of RxDesc written to ISR
system.tsunami.ethernet.totalRxIdle                 0                       # total number of RxIdle written to ISR
system.tsunami.ethernet.totalRxOk                   0                       # total number of RxOk written to ISR
system.tsunami.ethernet.totalRxOrn                  0                       # total number of RxOrn written to ISR
system.tsunami.ethernet.totalSwi                    0                       # total number of Swi written to ISR
system.tsunami.ethernet.totalTxDesc                 0                       # total number of TxDesc written to ISR
system.tsunami.ethernet.totalTxIdle                 0                       # total number of TxIdle written to ISR
system.tsunami.ethernet.totalTxOk                   0                       # total number of TxOk written to ISR
system.bridge.pwrStateResidencyTicks::UNDEFINED 2541671578500                       # Cumulative time (in ticks) in various power states
system.voltage_domain.voltage                       1                       # Voltage in Volts
system.iocache.pwrStateResidencyTicks::UNDEFINED 2541671578500                       # Cumulative time (in ticks) in various power states
system.iocache.demand_misses::.tsunami.ide          195                       # number of demand (read+write) misses
system.iocache.demand_misses::total               195                       # number of demand (read+write) misses
system.iocache.overall_misses::.tsunami.ide          195                       # number of overall misses
system.iocache.overall_misses::total              195                       # number of overall misses
system.iocache.demand_miss_latency::.tsunami.ide     22864455                       # number of demand (read+write) miss cycles
system.iocache.demand_miss_latency::total     22864455                       # number of demand (read+write) miss cycles
system.iocache.overall_miss_latency::.tsunami.ide     22864455                       # number of overall miss cycles
system.iocache.overall_miss_latency::total     22864455                       # number of overall miss cycles
system.iocache.demand_accesses::.tsunami.ide          195                       # number of demand (read+write) accesses
system.iocache.demand_accesses::total             195                       # number of demand (read+write) accesses
system.iocache.overall_accesses::.tsunami.ide          195                       # number of overall (read+write) accesses
system.iocache.overall_accesses::total            195                       # number of overall (read+write) accesses
system.iocache.demand_miss_rate::.tsunami.ide            1                       # miss rate for demand accesses
system.iocache.demand_miss_rate::total              1                       # miss rate for demand accesses
system.iocache.overall_miss_rate::.tsunami.ide            1                       # miss rate for overall accesses
system.iocache.overall_miss_rate::total             1                       # miss rate for overall accesses
system.iocache.demand_avg_miss_latency::.tsunami.ide 117253.615385                       # average overall miss latency
system.iocache.demand_avg_miss_latency::total 117253.615385                       # average overall miss latency
system.iocache.overall_avg_miss_latency::.tsunami.ide 117253.615385                       # average overall miss latency
system.iocache.overall_avg_miss_latency::total 117253.615385                       # average overall miss latency
system.iocache.blocked_cycles::no_mshrs             0                       # number of cycles access was blocked
system.iocache.blocked_cycles::no_targets            0                       # number of cycles access was blocked
system.iocache.blocked::no_mshrs                    0                       # number of cycles access was blocked
system.iocache.blocked::no_targets                  0                       # number of cycles access was blocked
system.iocache.avg_blocked_cycles::no_mshrs          nan                       # average number of cycles each access was blocked
system.iocache.avg_blocked_cycles::no_targets          nan                       # average number of cycles each access was blocked
system.iocache.writebacks::.writebacks            176                       # number of writebacks
system.iocache.writebacks::total                  176                       # number of writebacks
system.iocache.demand_mshr_misses::.tsunami.ide          195                       # number of demand (read+write) MSHR misses
system.iocache.demand_mshr_misses::total          195                       # number of demand (read+write) MSHR misses
system.iocache.overall_mshr_misses::.tsunami.ide          195                       # number of overall MSHR misses
system.iocache.overall_mshr_misses::total          195                       # number of overall MSHR misses
system.iocache.demand_mshr_miss_latency::.tsunami.ide     13101489                       # number of demand (read+write) MSHR miss cycles
system.iocache.demand_mshr_miss_latency::total     13101489                       # number of demand (read+write) MSHR miss cycles
system.iocache.overall_mshr_miss_latency::.tsunami.ide     13101489                       # number of overall MSHR miss cycles
system.iocache.overall_mshr_miss_latency::total     13101489                       # number of overall MSHR miss cycles
system.iocache.demand_mshr_miss_rate::.tsunami.ide            1                       # mshr miss rate for demand accesses
system.iocache.demand_mshr_miss_rate::total            1                       # mshr miss rate for demand accesses
system.iocache.overall_mshr_miss_rate::.tsunami.ide            1                       # mshr miss rate for overall accesses
system.iocache.overall_mshr_miss_rate::total            1                       # mshr miss rate for overall accesses
system.iocache.demand_avg_mshr_miss_latency::.tsunami.ide 67187.123077                       # average overall mshr miss latency
system.iocache.demand_avg_mshr_miss_latency::total 67187.123077                       # average overall mshr miss latency
system.iocache.overall_avg_mshr_miss_latency::.tsunami.ide 67187.123077                       # average overall mshr miss latency
system.iocache.overall_avg_mshr_miss_latency::total 67187.123077                       # average overall mshr miss latency
system.iocache.replacements                       179                       # number of replacements
system.iocache.ReadReq_misses::.tsunami.ide            3                       # number of ReadReq misses
system.iocache.ReadReq_misses::total                3                       # number of ReadReq misses
system.iocache.ReadReq_miss_latency::.tsunami.ide       349497                       # number of ReadReq miss cycles
system.iocache.ReadReq_miss_latency::total       349497                       # number of ReadReq miss cycles
system.iocache.ReadReq_accesses::.tsunami.ide            3                       # number of ReadReq accesses(hits+misses)
system.iocache.ReadReq_accesses::total              3                       # number of ReadReq accesses(hits+misses)
system.iocache.ReadReq_miss_rate::.tsunami.ide            1                       # miss rate for ReadReq accesses
system.iocache.ReadReq_miss_rate::total             1                       # miss rate for ReadReq accesses
system.iocache.ReadReq_avg_miss_latency::.tsunami.ide       116499                       # average ReadReq miss latency
system.iocache.ReadReq_avg_miss_latency::total       116499                       # average ReadReq miss latency
system.iocache.ReadReq_mshr_misses::.tsunami.ide            3                       # number of ReadReq MSHR misses
system.iocache.ReadReq_mshr_misses::total            3                       # number of ReadReq MSHR misses
system.iocache.ReadReq_mshr_miss_latency::.tsunami.ide       199497                       # number of ReadReq MSHR miss cycles
system.iocache.ReadReq_mshr_miss_latency::total       199497                       # number of ReadReq MSHR miss cycles
system.iocache.ReadReq_mshr_miss_rate::.tsunami.ide            1                       # mshr miss rate for ReadReq accesses
system.iocache.ReadReq_mshr_miss_rate::total            1                       # mshr miss rate for ReadReq accesses
system.iocache.ReadReq_avg_mshr_miss_latency::.tsunami.ide        66499                       # average ReadReq mshr miss latency
system.iocache.ReadReq_avg_mshr_miss_latency::total        66499                       # average ReadReq mshr miss latency
system.iocache.WriteLineReq_misses::.tsunami.ide          192                       # number of WriteLineReq misses
system.iocache.WriteLineReq_misses::total          192                       # number of WriteLineReq misses
system.iocache.WriteLineReq_miss_latency::.tsunami.ide     22514958                       # number of WriteLineReq miss cycles
system.iocache.WriteLineReq_miss_latency::total     22514958                       # number of WriteLineReq miss cycles
system.iocache.WriteLineReq_accesses::.tsunami.ide          192                       # number of WriteLineReq accesses(hits+misses)
system.iocache.WriteLineReq_accesses::total          192                       # number of WriteLineReq accesses(hits+misses)
system.iocache.WriteLineReq_miss_rate::.tsunami.ide            1                       # miss rate for WriteLineReq accesses
system.iocache.WriteLineReq_miss_rate::total            1                       # miss rate for WriteLineReq accesses
system.iocache.WriteLineReq_avg_miss_latency::.tsunami.ide 117265.406250                       # average WriteLineReq miss latency
system.iocache.WriteLineReq_avg_miss_latency::total 117265.406250                       # average WriteLineReq miss latency
system.iocache.WriteLineReq_mshr_misses::.tsunami.ide          192                       # number of WriteLineReq MSHR misses
system.iocache.WriteLineReq_mshr_misses::total          192                       # number of WriteLineReq MSHR misses
system.iocache.WriteLineReq_mshr_miss_latency::.tsunami.ide     12901992                       # number of WriteLineReq MSHR miss cycles
system.iocache.WriteLineReq_mshr_miss_latency::total     12901992                       # number of WriteLineReq MSHR miss cycles
system.iocache.WriteLineReq_mshr_miss_rate::.tsunami.ide            1                       # mshr miss rate for WriteLineReq accesses
system.iocache.WriteLineReq_mshr_miss_rate::total            1                       # mshr miss rate for WriteLineReq accesses
system.iocache.WriteLineReq_avg_mshr_miss_latency::.tsunami.ide 67197.875000                       # average WriteLineReq mshr miss latency
system.iocache.WriteLineReq_avg_mshr_miss_latency::total 67197.875000                       # average WriteLineReq mshr miss latency
system.iocache.tags.pwrStateResidencyTicks::UNDEFINED 2541671578500                       # Cumulative time (in ticks) in various power states
system.iocache.tags.tagsinuse                3.292888                       # Cycle average of tags in use
system.iocache.tags.total_refs                    179                       # Total number of references to valid blocks.
system.iocache.tags.sampled_refs                  179                       # Sample count of references to valid blocks.
system.iocache.tags.avg_refs                        1                       # Average number of references to valid blocks.
system.iocache.tags.warmup_cycle         2539270452000                       # Cycle when the warmup percentage was hit.
system.iocache.tags.occ_blocks::.tsunami.ide     3.292888                       # Average occupied blocks per requestor
system.iocache.tags.occ_percent::.tsunami.ide     0.205805                       # Average percentage of cache occupancy
system.iocache.tags.occ_percent::total       0.205805                       # Average percentage of cache occupancy
system.iocache.tags.occ_task_id_blocks::1023           16                       # Occupied blocks per task id
system.iocache.tags.age_task_id_blocks_1023::3           16                       # Occupied blocks per task id
system.iocache.tags.occ_task_id_percent::1023            1                       # Percentage of cache occupancy per task id
system.iocache.tags.tag_accesses                 1755                       # Number of tag accesses
system.iocache.tags.data_accesses                1755                       # Number of data accesses
system.membus.pwrStateResidencyTicks::UNDEFINED 2541671578500                       # Cumulative time (in ticks) in various power states
system.membus.trans_dist::ReadReq                 108                       # Transaction distribution
system.membus.trans_dist::ReadResp             127291                       # Transaction distribution
system.membus.trans_dist::WriteReq                 99                       # Transaction distribution
system.membus.trans_dist::WriteResp                99                       # Transaction distribution
system.membus.trans_dist::WritebackDirty        34846                       # Transaction distribution
system.membus.trans_dist::WritebackClean        85755                       # Transaction distribution
system.membus.trans_dist::CleanEvict            34131                       # Transaction distribution
system.membus.trans_dist::UpgradeReq               16                       # Transaction distribution
system.membus.trans_dist::ReadExReq             28987                       # Transaction distribution
system.membus.trans_dist::ReadExResp            28987                       # Transaction distribution
system.membus.trans_dist::ReadCleanReq          86345                       # Transaction distribution
system.membus.trans_dist::ReadSharedReq         40841                       # Transaction distribution
system.membus.trans_dist::BadAddressError            3                       # Transaction distribution
system.membus.trans_dist::InvalidateReq           192                       # Transaction distribution
system.membus.pkt_count_system.iocache.mem_side::system.mem_ctrls.port          374                       # Packet count per connected master and slave (bytes)
system.membus.pkt_count_system.iocache.mem_side::total          374                       # Packet count per connected master and slave (bytes)
system.membus.pkt_count_system.cpu.icache.mem_side::system.mem_ctrls.port       258383                       # Packet count per connected master and slave (bytes)
system.membus.pkt_count_system.cpu.icache.mem_side::total       258383                       # Packet count per connected master and slave (bytes)
system.membus.pkt_count_system.cpu.dcache.mem_side::system.bridge.slave          414                       # Packet count per connected master and slave (bytes)
system.membus.pkt_count_system.cpu.dcache.mem_side::system.mem_ctrls.port       208458                       # Packet count per connected master and slave (bytes)
system.membus.pkt_count_system.cpu.dcache.mem_side::system.membus.badaddr_responder.pio            6                       # Packet count per connected master and slave (bytes)
system.membus.pkt_count_system.cpu.dcache.mem_side::total       208878                       # Packet count per connected master and slave (bytes)
system.membus.pkt_count::total                 467635                       # Packet count per connected master and slave (bytes)
system.membus.pkt_size_system.iocache.mem_side::system.mem_ctrls.port        11264                       # Cumulative packet size per connected master and slave (bytes)
system.membus.pkt_size_system.iocache.mem_side::total        11264                       # Cumulative packet size per connected master and slave (bytes)
system.membus.pkt_size_system.cpu.icache.mem_side::system.mem_ctrls.port     11010432                       # Cumulative packet size per connected master and slave (bytes)
system.membus.pkt_size_system.cpu.icache.mem_side::total     11010432                       # Cumulative packet size per connected master and slave (bytes)
system.membus.pkt_size_system.cpu.dcache.mem_side::system.bridge.slave          433                       # Cumulative packet size per connected master and slave (bytes)
system.membus.pkt_size_system.cpu.dcache.mem_side::system.mem_ctrls.port      6687488                       # Cumulative packet size per connected master and slave (bytes)
system.membus.pkt_size_system.cpu.dcache.mem_side::total      6687921                       # Cumulative packet size per connected master and slave (bytes)
system.membus.pkt_size::total                17709617                       # Cumulative packet size per connected master and slave (bytes)
system.membus.snoops                               65                       # Total snoops (count)
system.membus.snoopTraffic                       4160                       # Total snoop traffic (bytes)
system.membus.snoop_fanout::samples            156588                       # Request fanout histogram
system.membus.snoop_fanout::mean             0.002778                       # Request fanout histogram
system.membus.snoop_fanout::stdev            0.052634                       # Request fanout histogram
system.membus.snoop_fanout::underflows              0      0.00%      0.00% # Request fanout histogram
system.membus.snoop_fanout::0                  156153     99.72%     99.72% # Request fanout histogram
system.membus.snoop_fanout::1                     435      0.28%    100.00% # Request fanout histogram
system.membus.snoop_fanout::2                       0      0.00%    100.00% # Request fanout histogram
system.membus.snoop_fanout::3                       0      0.00%    100.00% # Request fanout histogram
system.membus.snoop_fanout::overflows               0      0.00%    100.00% # Request fanout histogram
system.membus.snoop_fanout::min_value               0                       # Request fanout histogram
system.membus.snoop_fanout::max_value               1                       # Request fanout histogram
system.membus.snoop_fanout::total              156588                       # Request fanout histogram
system.membus.reqLayer0.occupancy              355500                       # Layer occupancy (ticks)
system.membus.reqLayer0.utilization               0.0                       # Layer utilization (%)
system.membus.reqLayer1.occupancy           815812537                       # Layer occupancy (ticks)
system.membus.reqLayer1.utilization               7.0                       # Layer utilization (%)
system.membus.reqLayer2.occupancy                4000                       # Layer occupancy (ticks)
system.membus.reqLayer2.utilization               0.0                       # Layer utilization (%)
system.membus.respLayer1.occupancy              17997                       # Layer occupancy (ticks)
system.membus.respLayer1.utilization              0.0                       # Layer utilization (%)
system.membus.respLayer3.occupancy          375600750                       # Layer occupancy (ticks)
system.membus.respLayer3.utilization              3.2                       # Layer utilization (%)
system.membus.badaddr_responder.pwrStateResidencyTicks::UNDEFINED 2541671578500                       # Cumulative time (in ticks) in various power states
system.membus.respLayer2.occupancy          457757750                       # Layer occupancy (ticks)
system.membus.respLayer2.utilization              3.9                       # Layer utilization (%)
system.clk_domain.clock                          1000                       # Clock period in ticks
system.tsunami.fake_uart1.pwrStateResidencyTicks::UNDEFINED 2541671578500                       # Cumulative time (in ticks) in various power states
system.tsunami.fake_uart2.pwrStateResidencyTicks::UNDEFINED 2541671578500                       # Cumulative time (in ticks) in various power states
system.tsunami.fake_uart3.pwrStateResidencyTicks::UNDEFINED 2541671578500                       # Cumulative time (in ticks) in various power states
system.tsunami.fake_uart4.pwrStateResidencyTicks::UNDEFINED 2541671578500                       # Cumulative time (in ticks) in various power states
system.tsunami.fake_ppc.pwrStateResidencyTicks::UNDEFINED 2541671578500                       # Cumulative time (in ticks) in various power states
system.tsunami.cchip.pwrStateResidencyTicks::UNDEFINED 2541671578500                       # Cumulative time (in ticks) in various power states
system.tsunami.io.pwrStateResidencyTicks::UNDEFINED 2541671578500                       # Cumulative time (in ticks) in various power states
system.tsunami.pchip.pwrStateResidencyTicks::UNDEFINED 2541671578500                       # Cumulative time (in ticks) in various power states
system.tsunami.fake_ata1.pwrStateResidencyTicks::UNDEFINED 2541671578500                       # Cumulative time (in ticks) in various power states
system.tsunami.fake_ata0.pwrStateResidencyTicks::UNDEFINED 2541671578500                       # Cumulative time (in ticks) in various power states
system.tsunami.backdoor.pwrStateResidencyTicks::UNDEFINED 2541671578500                       # Cumulative time (in ticks) in various power states
system.tsunami.fake_pnp_read3.pwrStateResidencyTicks::UNDEFINED 2541671578500                       # Cumulative time (in ticks) in various power states
system.tsunami.fake_pnp_read2.pwrStateResidencyTicks::UNDEFINED 2541671578500                       # Cumulative time (in ticks) in various power states
system.tsunami.fake_pnp_read1.pwrStateResidencyTicks::UNDEFINED 2541671578500                       # Cumulative time (in ticks) in various power states
system.tsunami.fake_pnp_read0.pwrStateResidencyTicks::UNDEFINED 2541671578500                       # Cumulative time (in ticks) in various power states
system.tsunami.fake_pnp_read7.pwrStateResidencyTicks::UNDEFINED 2541671578500                       # Cumulative time (in ticks) in various power states
system.tsunami.fake_pnp_read6.pwrStateResidencyTicks::UNDEFINED 2541671578500                       # Cumulative time (in ticks) in various power states
system.tsunami.fake_pnp_read5.pwrStateResidencyTicks::UNDEFINED 2541671578500                       # Cumulative time (in ticks) in various power states
system.tsunami.fake_pnp_read4.pwrStateResidencyTicks::UNDEFINED 2541671578500                       # Cumulative time (in ticks) in various power states
system.tsunami.fake_pnp_write.pwrStateResidencyTicks::UNDEFINED 2541671578500                       # Cumulative time (in ticks) in various power states
system.tsunami.fb.pwrStateResidencyTicks::UNDEFINED 2541671578500                       # Cumulative time (in ticks) in various power states
system.tsunami.fake_pnp_addr.pwrStateResidencyTicks::UNDEFINED 2541671578500                       # Cumulative time (in ticks) in various power states
system.tsunami.fake_OROM.pwrStateResidencyTicks::UNDEFINED 2541671578500                       # Cumulative time (in ticks) in various power states
system.tsunami.uart.pwrStateResidencyTicks::UNDEFINED 2541671578500                       # Cumulative time (in ticks) in various power states
system.tsunami.fake_sm_chip.pwrStateResidencyTicks::UNDEFINED 2541671578500                       # Cumulative time (in ticks) in various power states
system.tsunami.ethernet.pwrStateResidencyTicks::UNDEFINED 2541671578500                       # Cumulative time (in ticks) in various power states
system.tsunami.ide.pwrStateResidencyTicks::UNDEFINED 2541671578500                       # Cumulative time (in ticks) in various power states
system.cpu_voltage_domain.voltage                   1                       # Voltage in Volts
system.mem_ctrls.pwrStateResidencyTicks::UNDEFINED 2541671578500                       # Cumulative time (in ticks) in various power states
system.mem_ctrls.bytes_read::.cpu.inst        5522112                       # Number of bytes read from this memory
system.mem_ctrls.bytes_read::.cpu.data        4468608                       # Number of bytes read from this memory
system.mem_ctrls.bytes_read::total            9990720                       # Number of bytes read from this memory
system.mem_ctrls.bytes_inst_read::.cpu.inst      5522112                       # Number of instructions bytes read from this memory
system.mem_ctrls.bytes_inst_read::total       5522112                       # Number of instructions bytes read from this memory
system.mem_ctrls.bytes_written::.writebacks      2230144                       # Number of bytes written to this memory
system.mem_ctrls.bytes_written::total         2230144                       # Number of bytes written to this memory
system.mem_ctrls.num_reads::.cpu.inst           86283                       # Number of read requests responded to by this memory
system.mem_ctrls.num_reads::.cpu.data           69822                       # Number of read requests responded to by this memory
system.mem_ctrls.num_reads::total              156105                       # Number of read requests responded to by this memory
system.mem_ctrls.num_writes::.writebacks        34846                       # Number of write requests responded to by this memory
system.mem_ctrls.num_writes::total              34846                       # Number of write requests responded to by this memory
system.mem_ctrls.bw_read::.cpu.inst         473524112                       # Total read bandwidth from this memory (bytes/s)
system.mem_ctrls.bw_read::.cpu.data         383185570                       # Total read bandwidth from this memory (bytes/s)
system.mem_ctrls.bw_read::total             856709682                       # Total read bandwidth from this memory (bytes/s)
system.mem_ctrls.bw_inst_read::.cpu.inst    473524112                       # Instruction read bandwidth from this memory (bytes/s)
system.mem_ctrls.bw_inst_read::total        473524112                       # Instruction read bandwidth from this memory (bytes/s)
system.mem_ctrls.bw_write::.writebacks      191236063                       # Write bandwidth from this memory (bytes/s)
system.mem_ctrls.bw_write::total            191236063                       # Write bandwidth from this memory (bytes/s)
system.mem_ctrls.bw_total::.writebacks      191236063                       # Total bandwidth to/from this memory (bytes/s)
system.mem_ctrls.bw_total::.cpu.inst        473524112                       # Total bandwidth to/from this memory (bytes/s)
system.mem_ctrls.bw_total::.cpu.data        383185570                       # Total bandwidth to/from this memory (bytes/s)
system.mem_ctrls.bw_total::total           1047945745                       # Total bandwidth to/from this memory (bytes/s)
system.mem_ctrls.avgPriority_.writebacks::samples    118177.00                       # Average QoS priority value for accepted requests
system.mem_ctrls.avgPriority_.cpu.inst::samples     76391.00                       # Average QoS priority value for accepted requests
system.mem_ctrls.avgPriority_.cpu.data::samples     69353.00                       # Average QoS priority value for accepted requests
system.mem_ctrls.priorityMinLatency      0.000000018750                       # per QoS priority minimum request to response latency (s)
system.mem_ctrls.priorityMaxLatency      0.000140206250                       # per QoS priority maximum request to response latency (s)
system.mem_ctrls.numReadWriteTurnArounds         7278                       # Number of turnarounds from READ to WRITE
system.mem_ctrls.numWriteReadTurnArounds         7278                       # Number of turnarounds from WRITE to READ
system.mem_ctrls.numStayReadState              404206                       # Number of times bus staying in READ state
system.mem_ctrls.numStayWriteState             110954                       # Number of times bus staying in WRITE state
system.mem_ctrls.readReqs                      156105                       # Number of read requests accepted
system.mem_ctrls.writeReqs                     120386                       # Number of write requests accepted
system.mem_ctrls.readBursts                    156105                       # Number of DRAM read bursts, including those serviced by the write queue
system.mem_ctrls.writeBursts                   120386                       # Number of DRAM write bursts, including those merged in the write queue
system.mem_ctrls.servicedByWrQ                  10361                       # Number of DRAM read bursts serviced by the write queue
system.mem_ctrls.mergedWrBursts                  2209                       # Number of DRAM write bursts merged with an existing one
system.mem_ctrls.neitherReadNorWriteReqs            0                       # Number of requests that are neither read nor write
system.mem_ctrls.perBankRdBursts::0              8752                       # Per bank write bursts
system.mem_ctrls.perBankRdBursts::1              6715                       # Per bank write bursts
system.mem_ctrls.perBankRdBursts::2              9582                       # Per bank write bursts
system.mem_ctrls.perBankRdBursts::3              7037                       # Per bank write bursts
system.mem_ctrls.perBankRdBursts::4              8344                       # Per bank write bursts
system.mem_ctrls.perBankRdBursts::5             10061                       # Per bank write bursts
system.mem_ctrls.perBankRdBursts::6              8443                       # Per bank write bursts
system.mem_ctrls.perBankRdBursts::7              8690                       # Per bank write bursts
system.mem_ctrls.perBankRdBursts::8             11528                       # Per bank write bursts
system.mem_ctrls.perBankRdBursts::9              9243                       # Per bank write bursts
system.mem_ctrls.perBankRdBursts::10            10360                       # Per bank write bursts
system.mem_ctrls.perBankRdBursts::11            12101                       # Per bank write bursts
system.mem_ctrls.perBankRdBursts::12             8860                       # Per bank write bursts
system.mem_ctrls.perBankRdBursts::13            13530                       # Per bank write bursts
system.mem_ctrls.perBankRdBursts::14             5566                       # Per bank write bursts
system.mem_ctrls.perBankRdBursts::15             6932                       # Per bank write bursts
system.mem_ctrls.perBankWrBursts::0              7020                       # Per bank write bursts
system.mem_ctrls.perBankWrBursts::1              4560                       # Per bank write bursts
system.mem_ctrls.perBankWrBursts::2              8122                       # Per bank write bursts
system.mem_ctrls.perBankWrBursts::3              7822                       # Per bank write bursts
system.mem_ctrls.perBankWrBursts::4              7592                       # Per bank write bursts
system.mem_ctrls.perBankWrBursts::5              9852                       # Per bank write bursts
system.mem_ctrls.perBankWrBursts::6              7194                       # Per bank write bursts
system.mem_ctrls.perBankWrBursts::7              6899                       # Per bank write bursts
system.mem_ctrls.perBankWrBursts::8             10373                       # Per bank write bursts
system.mem_ctrls.perBankWrBursts::9              8413                       # Per bank write bursts
system.mem_ctrls.perBankWrBursts::10             7713                       # Per bank write bursts
system.mem_ctrls.perBankWrBursts::11             8130                       # Per bank write bursts
system.mem_ctrls.perBankWrBursts::12             5454                       # Per bank write bursts
system.mem_ctrls.perBankWrBursts::13             9987                       # Per bank write bursts
system.mem_ctrls.perBankWrBursts::14             3229                       # Per bank write bursts
system.mem_ctrls.perBankWrBursts::15             5796                       # Per bank write bursts
system.mem_ctrls.avgRdQLen                       1.09                       # Average read queue length when enqueuing
system.mem_ctrls.avgWrQLen                      25.78                       # Average write queue length when enqueuing
system.mem_ctrls.totQLat                   1996172000                       # Total ticks spent queuing
system.mem_ctrls.totBusLat                  728720000                       # Total ticks spent in databus transfers
system.mem_ctrls.totMemAccLat              4728872000                       # Total ticks spent from burst creation until serviced by the DRAM
system.mem_ctrls.avgQLat                     13696.43                       # Average queueing delay per DRAM burst
system.mem_ctrls.avgBusLat                    5000.00                       # Average bus latency per DRAM burst
system.mem_ctrls.avgMemAccLat                32446.43                       # Average memory access latency per DRAM burst
system.mem_ctrls.numRdRetry                         0                       # Number of times read queue was full causing retry
system.mem_ctrls.numWrRetry                         0                       # Number of times write queue was full causing retry
system.mem_ctrls.readRowHits                   103377                       # Number of row buffer hits during reads
system.mem_ctrls.writeRowHits                   79660                       # Number of row buffer hits during writes
system.mem_ctrls.readRowHitRate                 70.93                       # Row buffer hit rate for reads
system.mem_ctrls.writeRowHitRate                67.41                       # Row buffer hit rate for writes
system.mem_ctrls.readPktSize::0                     0                       # Read request sizes (log2)
system.mem_ctrls.readPktSize::1                     0                       # Read request sizes (log2)
system.mem_ctrls.readPktSize::2                     0                       # Read request sizes (log2)
system.mem_ctrls.readPktSize::3                     0                       # Read request sizes (log2)
system.mem_ctrls.readPktSize::4                     0                       # Read request sizes (log2)
system.mem_ctrls.readPktSize::5                     0                       # Read request sizes (log2)
system.mem_ctrls.readPktSize::6                156105                       # Read request sizes (log2)
system.mem_ctrls.writePktSize::0                    0                       # Write request sizes (log2)
system.mem_ctrls.writePktSize::1                    0                       # Write request sizes (log2)
system.mem_ctrls.writePktSize::2                    0                       # Write request sizes (log2)
system.mem_ctrls.writePktSize::3                    0                       # Write request sizes (log2)
system.mem_ctrls.writePktSize::4                    0                       # Write request sizes (log2)
system.mem_ctrls.writePktSize::5                    0                       # Write request sizes (log2)
system.mem_ctrls.writePktSize::6               120386                       # Write request sizes (log2)
system.mem_ctrls.rdQLenPdf::0                  133500                       # What read queue length does an incoming req see
system.mem_ctrls.rdQLenPdf::1                   11928                       # What read queue length does an incoming req see
system.mem_ctrls.rdQLenPdf::2                     316                       # What read queue length does an incoming req see
system.mem_ctrls.rdQLenPdf::3                       0                       # What read queue length does an incoming req see
system.mem_ctrls.rdQLenPdf::4                       0                       # What read queue length does an incoming req see
system.mem_ctrls.rdQLenPdf::5                       0                       # What read queue length does an incoming req see
system.mem_ctrls.rdQLenPdf::6                       0                       # What read queue length does an incoming req see
system.mem_ctrls.rdQLenPdf::7                       0                       # What read queue length does an incoming req see
system.mem_ctrls.rdQLenPdf::8                       0                       # What read queue length does an incoming req see
system.mem_ctrls.rdQLenPdf::9                       0                       # What read queue length does an incoming req see
system.mem_ctrls.rdQLenPdf::10                      0                       # What read queue length does an incoming req see
system.mem_ctrls.rdQLenPdf::11                      0                       # What read queue length does an incoming req see
system.mem_ctrls.rdQLenPdf::12                      0                       # What read queue length does an incoming req see
system.mem_ctrls.rdQLenPdf::13                      0                       # What read queue length does an incoming req see
system.mem_ctrls.rdQLenPdf::14                      0                       # What read queue length does an incoming req see
system.mem_ctrls.rdQLenPdf::15                      0                       # What read queue length does an incoming req see
system.mem_ctrls.rdQLenPdf::16                      0                       # What read queue length does an incoming req see
system.mem_ctrls.rdQLenPdf::17                      0                       # What read queue length does an incoming req see
system.mem_ctrls.rdQLenPdf::18                      0                       # What read queue length does an incoming req see
system.mem_ctrls.rdQLenPdf::19                      0                       # What read queue length does an incoming req see
system.mem_ctrls.rdQLenPdf::20                      0                       # What read queue length does an incoming req see
system.mem_ctrls.rdQLenPdf::21                      0                       # What read queue length does an incoming req see
system.mem_ctrls.rdQLenPdf::22                      0                       # What read queue length does an incoming req see
system.mem_ctrls.rdQLenPdf::23                      0                       # What read queue length does an incoming req see
system.mem_ctrls.rdQLenPdf::24                      0                       # What read queue length does an incoming req see
system.mem_ctrls.rdQLenPdf::25                      0                       # What read queue length does an incoming req see
system.mem_ctrls.rdQLenPdf::26                      0                       # What read queue length does an incoming req see
system.mem_ctrls.rdQLenPdf::27                      0                       # What read queue length does an incoming req see
system.mem_ctrls.rdQLenPdf::28                      0                       # What read queue length does an incoming req see
system.mem_ctrls.rdQLenPdf::29                      0                       # What read queue length does an incoming req see
system.mem_ctrls.rdQLenPdf::30                      0                       # What read queue length does an incoming req see
system.mem_ctrls.rdQLenPdf::31                      0                       # What read queue length does an incoming req see
system.mem_ctrls.wrQLenPdf::0                       1                       # What write queue length does an incoming req see
system.mem_ctrls.wrQLenPdf::1                       1                       # What write queue length does an incoming req see
system.mem_ctrls.wrQLenPdf::2                       1                       # What write queue length does an incoming req see
system.mem_ctrls.wrQLenPdf::3                       1                       # What write queue length does an incoming req see
system.mem_ctrls.wrQLenPdf::4                       1                       # What write queue length does an incoming req see
system.mem_ctrls.wrQLenPdf::5                       1                       # What write queue length does an incoming req see
system.mem_ctrls.wrQLenPdf::6                       1                       # What write queue length does an incoming req see
system.mem_ctrls.wrQLenPdf::7                       1                       # What write queue length does an incoming req see
system.mem_ctrls.wrQLenPdf::8                       1                       # What write queue length does an incoming req see
system.mem_ctrls.wrQLenPdf::9                       1                       # What write queue length does an incoming req see
system.mem_ctrls.wrQLenPdf::10                      1                       # What write queue length does an incoming req see
system.mem_ctrls.wrQLenPdf::11                      1                       # What write queue length does an incoming req see
system.mem_ctrls.wrQLenPdf::12                      1                       # What write queue length does an incoming req see
system.mem_ctrls.wrQLenPdf::13                      1                       # What write queue length does an incoming req see
system.mem_ctrls.wrQLenPdf::14                      1                       # What write queue length does an incoming req see
system.mem_ctrls.wrQLenPdf::15                    624                       # What write queue length does an incoming req see
system.mem_ctrls.wrQLenPdf::16                    729                       # What write queue length does an incoming req see
system.mem_ctrls.wrQLenPdf::17                   6636                       # What write queue length does an incoming req see
system.mem_ctrls.wrQLenPdf::18                   7276                       # What write queue length does an incoming req see
system.mem_ctrls.wrQLenPdf::19                   7422                       # What write queue length does an incoming req see
system.mem_ctrls.wrQLenPdf::20                   7366                       # What write queue length does an incoming req see
system.mem_ctrls.wrQLenPdf::21                   7349                       # What write queue length does an incoming req see
system.mem_ctrls.wrQLenPdf::22                   7444                       # What write queue length does an incoming req see
system.mem_ctrls.wrQLenPdf::23                   7370                       # What write queue length does an incoming req see
system.mem_ctrls.wrQLenPdf::24                   7344                       # What write queue length does an incoming req see
system.mem_ctrls.wrQLenPdf::25                   7349                       # What write queue length does an incoming req see
system.mem_ctrls.wrQLenPdf::26                   7385                       # What write queue length does an incoming req see
system.mem_ctrls.wrQLenPdf::27                   7342                       # What write queue length does an incoming req see
system.mem_ctrls.wrQLenPdf::28                   7325                       # What write queue length does an incoming req see
system.mem_ctrls.wrQLenPdf::29                   7323                       # What write queue length does an incoming req see
system.mem_ctrls.wrQLenPdf::30                   7286                       # What write queue length does an incoming req see
system.mem_ctrls.wrQLenPdf::31                   7288                       # What write queue length does an incoming req see
system.mem_ctrls.wrQLenPdf::32                   7280                       # What write queue length does an incoming req see
system.mem_ctrls.wrQLenPdf::33                     12                       # What write queue length does an incoming req see
system.mem_ctrls.wrQLenPdf::34                      9                       # What write queue length does an incoming req see
system.mem_ctrls.wrQLenPdf::35                      2                       # What write queue length does an incoming req see
system.mem_ctrls.wrQLenPdf::36                      1                       # What write queue length does an incoming req see
system.mem_ctrls.wrQLenPdf::37                      0                       # What write queue length does an incoming req see
system.mem_ctrls.wrQLenPdf::38                      0                       # What write queue length does an incoming req see
system.mem_ctrls.wrQLenPdf::39                      0                       # What write queue length does an incoming req see
system.mem_ctrls.wrQLenPdf::40                      0                       # What write queue length does an incoming req see
system.mem_ctrls.wrQLenPdf::41                      0                       # What write queue length does an incoming req see
system.mem_ctrls.wrQLenPdf::42                      0                       # What write queue length does an incoming req see
system.mem_ctrls.wrQLenPdf::43                      0                       # What write queue length does an incoming req see
system.mem_ctrls.wrQLenPdf::44                      0                       # What write queue length does an incoming req see
system.mem_ctrls.wrQLenPdf::45                      0                       # What write queue length does an incoming req see
system.mem_ctrls.wrQLenPdf::46                      0                       # What write queue length does an incoming req see
system.mem_ctrls.wrQLenPdf::47                      0                       # What write queue length does an incoming req see
system.mem_ctrls.wrQLenPdf::48                      0                       # What write queue length does an incoming req see
system.mem_ctrls.wrQLenPdf::49                      0                       # What write queue length does an incoming req see
system.mem_ctrls.wrQLenPdf::50                      0                       # What write queue length does an incoming req see
system.mem_ctrls.wrQLenPdf::51                      0                       # What write queue length does an incoming req see
system.mem_ctrls.wrQLenPdf::52                      0                       # What write queue length does an incoming req see
system.mem_ctrls.wrQLenPdf::53                      0                       # What write queue length does an incoming req see
system.mem_ctrls.wrQLenPdf::54                      0                       # What write queue length does an incoming req see
system.mem_ctrls.wrQLenPdf::55                      0                       # What write queue length does an incoming req see
system.mem_ctrls.wrQLenPdf::56                      0                       # What write queue length does an incoming req see
system.mem_ctrls.wrQLenPdf::57                      0                       # What write queue length does an incoming req see
system.mem_ctrls.wrQLenPdf::58                      0                       # What write queue length does an incoming req see
system.mem_ctrls.wrQLenPdf::59                      0                       # What write queue length does an incoming req see
system.mem_ctrls.wrQLenPdf::60                      0                       # What write queue length does an incoming req see
system.mem_ctrls.wrQLenPdf::61                      0                       # What write queue length does an incoming req see
system.mem_ctrls.wrQLenPdf::62                      0                       # What write queue length does an incoming req see
system.mem_ctrls.wrQLenPdf::63                      0                       # What write queue length does an incoming req see
system.mem_ctrls.bytesPerActivate::samples        80851                       # Bytes accessed per row activation
system.mem_ctrls.bytesPerActivate::mean    208.865394                       # Bytes accessed per row activation
system.mem_ctrls.bytesPerActivate::gmean   140.479887                       # Bytes accessed per row activation
system.mem_ctrls.bytesPerActivate::stdev   225.512585                       # Bytes accessed per row activation
system.mem_ctrls.bytesPerActivate::0-127        34115     42.19%     42.19% # Bytes accessed per row activation
system.mem_ctrls.bytesPerActivate::128-255        24139     29.86%     72.05% # Bytes accessed per row activation
system.mem_ctrls.bytesPerActivate::256-383        10011     12.38%     84.43% # Bytes accessed per row activation
system.mem_ctrls.bytesPerActivate::384-511         4524      5.60%     90.03% # Bytes accessed per row activation
system.mem_ctrls.bytesPerActivate::512-639         2309      2.86%     92.88% # Bytes accessed per row activation
system.mem_ctrls.bytesPerActivate::640-767         1429      1.77%     94.65% # Bytes accessed per row activation
system.mem_ctrls.bytesPerActivate::768-895          957      1.18%     95.84% # Bytes accessed per row activation
system.mem_ctrls.bytesPerActivate::896-1023          546      0.68%     96.51% # Bytes accessed per row activation
system.mem_ctrls.bytesPerActivate::1024-1151         2821      3.49%    100.00% # Bytes accessed per row activation
system.mem_ctrls.bytesPerActivate::total        80851                       # Bytes accessed per row activation
system.mem_ctrls.rdPerTurnAround::samples         7278                       # Reads before turning the bus around for writes
system.mem_ctrls.rdPerTurnAround::mean      20.024595                       # Reads before turning the bus around for writes
system.mem_ctrls.rdPerTurnAround::gmean     18.412501                       # Reads before turning the bus around for writes
system.mem_ctrls.rdPerTurnAround::stdev     12.561464                       # Reads before turning the bus around for writes
system.mem_ctrls.rdPerTurnAround::0-15           1302     17.89%     17.89% # Reads before turning the bus around for writes
system.mem_ctrls.rdPerTurnAround::16-31          5486     75.38%     93.27% # Reads before turning the bus around for writes
system.mem_ctrls.rdPerTurnAround::32-47           298      4.09%     97.36% # Reads before turning the bus around for writes
[...]
system.cpu.icache.tags.occ_percent::total            1                       # Average percentage of cache occupancy
system.cpu.icache.tags.occ_task_id_blocks::1024          512                       # Occupied blocks per task id
system.cpu.icache.tags.age_task_id_blocks_1024::0           99                       # Occupied blocks per task id
system.cpu.icache.tags.age_task_id_blocks_1024::1          402                       # Occupied blocks per task id
system.cpu.icache.tags.age_task_id_blocks_1024::2           10                       # Occupied blocks per task id
system.cpu.icache.tags.age_task_id_blocks_1024::3            1                       # Occupied blocks per task id
system.cpu.icache.tags.occ_task_id_percent::1024            1                       # Percentage of cache occupancy per task id
system.cpu.icache.tags.tag_accesses         190893894                       # Number of tag accesses
system.cpu.icache.tags.data_accesses        190893894                       # Number of data accesses
system.cpu.dcache.pwrStateResidencyTicks::UNDEFINED 539573077000                       # Cumulative time (in ticks) in various power states
system.cpu.dcache.demand_hits::.cpu.data    146404210                       # number of demand (read+write) hits
system.cpu.dcache.demand_hits::total        146404210                       # number of demand (read+write) hits
system.cpu.dcache.overall_hits::.cpu.data    146404210                       # number of overall hits
system.cpu.dcache.overall_hits::total       146404210                       # number of overall hits
system.cpu.dcache.demand_misses::.cpu.data       464034                       # number of demand (read+write) misses
system.cpu.dcache.demand_misses::total         464034                       # number of demand (read+write) misses
system.cpu.dcache.overall_misses::.cpu.data       464034                       # number of overall misses
system.cpu.dcache.overall_misses::total        464034                       # number of overall misses
system.cpu.dcache.demand_miss_latency::.cpu.data  30920836000                       # number of demand (read+write) miss cycles
system.cpu.dcache.demand_miss_latency::total  30920836000                       # number of demand (read+write) miss cycles
system.cpu.dcache.overall_miss_latency::.cpu.data  30920836000                       # number of overall miss cycles
system.cpu.dcache.overall_miss_latency::total  30920836000                       # number of overall miss cycles
system.cpu.dcache.demand_accesses::.cpu.data    146868244                       # number of demand (read+write) accesses
system.cpu.dcache.demand_accesses::total    146868244                       # number of demand (read+write) accesses
system.cpu.dcache.overall_accesses::.cpu.data    146868244                       # number of overall (read+write) accesses
system.cpu.dcache.overall_accesses::total    146868244                       # number of overall (read+write) accesses
system.cpu.dcache.demand_miss_rate::.cpu.data     0.003160                       # miss rate for demand accesses
system.cpu.dcache.demand_miss_rate::total     0.003160                       # miss rate for demand accesses
system.cpu.dcache.overall_miss_rate::.cpu.data     0.003160                       # miss rate for overall accesses
system.cpu.dcache.overall_miss_rate::total     0.003160                       # miss rate for overall accesses
system.cpu.dcache.demand_avg_miss_latency::.cpu.data 66634.850033                       # average overall miss latency
system.cpu.dcache.demand_avg_miss_latency::total 66634.850033                       # average overall miss latency
system.cpu.dcache.overall_avg_miss_latency::.cpu.data 66634.850033                       # average overall miss latency
system.cpu.dcache.overall_avg_miss_latency::total 66634.850033                       # average overall miss latency
system.cpu.dcache.blocked_cycles::no_mshrs            0                       # number of cycles access was blocked
system.cpu.dcache.blocked_cycles::no_targets            0                       # number of cycles access was blocked
system.cpu.dcache.blocked::no_mshrs                 0                       # number of cycles access was blocked
system.cpu.dcache.blocked::no_targets               0                       # number of cycles access was blocked
system.cpu.dcache.avg_blocked_cycles::no_mshrs          nan                       # average number of cycles each access was blocked
system.cpu.dcache.avg_blocked_cycles::no_targets          nan                       # average number of cycles each access was blocked
system.cpu.dcache.writebacks::.writebacks       176959                       # number of writebacks
system.cpu.dcache.writebacks::total            176959                       # number of writebacks
system.cpu.dcache.demand_mshr_hits::.cpu.data       124408                       # number of demand (read+write) MSHR hits
system.cpu.dcache.demand_mshr_hits::total       124408                       # number of demand (read+write) MSHR hits
system.cpu.dcache.overall_mshr_hits::.cpu.data       124408                       # number of overall MSHR hits
system.cpu.dcache.overall_mshr_hits::total       124408                       # number of overall MSHR hits
system.cpu.dcache.demand_mshr_misses::.cpu.data       339626                       # number of demand (read+write) MSHR misses
system.cpu.dcache.demand_mshr_misses::total       339626                       # number of demand (read+write) MSHR misses
system.cpu.dcache.overall_mshr_misses::.cpu.data       339626                       # number of overall MSHR misses
system.cpu.dcache.overall_mshr_misses::total       339626                       # number of overall MSHR misses
system.cpu.dcache.overall_mshr_uncacheable_misses::.cpu.data         1548                       # number of overall MSHR uncacheable misses
system.cpu.dcache.overall_mshr_uncacheable_misses::total         1548                       # number of overall MSHR uncacheable misses
system.cpu.dcache.demand_mshr_miss_latency::.cpu.data  22715147500                       # number of demand (read+write) MSHR miss cycles
system.cpu.dcache.demand_mshr_miss_latency::total  22715147500                       # number of demand (read+write) MSHR miss cycles
system.cpu.dcache.overall_mshr_miss_latency::.cpu.data  22715147500                       # number of overall MSHR miss cycles
system.cpu.dcache.overall_mshr_miss_latency::total  22715147500                       # number of overall MSHR miss cycles
system.cpu.dcache.overall_mshr_uncacheable_latency::.cpu.data     87625000                       # number of overall MSHR uncacheable cycles
system.cpu.dcache.overall_mshr_uncacheable_latency::total     87625000                       # number of overall MSHR uncacheable cycles
system.cpu.dcache.demand_mshr_miss_rate::.cpu.data     0.002312                       # mshr miss rate for demand accesses
system.cpu.dcache.demand_mshr_miss_rate::total     0.002312                       # mshr miss rate for demand accesses
system.cpu.dcache.overall_mshr_miss_rate::.cpu.data     0.002312                       # mshr miss rate for overall accesses
system.cpu.dcache.overall_mshr_miss_rate::total     0.002312                       # mshr miss rate for overall accesses
system.cpu.dcache.demand_avg_mshr_miss_latency::.cpu.data 66882.828464                       # average overall mshr miss latency
system.cpu.dcache.demand_avg_mshr_miss_latency::total 66882.828464                       # average overall mshr miss latency
system.cpu.dcache.overall_avg_mshr_miss_latency::.cpu.data 66882.828464                       # average overall mshr miss latency
system.cpu.dcache.overall_avg_mshr_miss_latency::total 66882.828464                       # average overall mshr miss latency
system.cpu.dcache.overall_avg_mshr_uncacheable_latency::.cpu.data 56605.297158                       # average overall mshr uncacheable latency
system.cpu.dcache.overall_avg_mshr_uncacheable_latency::total 56605.297158                       # average overall mshr uncacheable latency
system.cpu.dcache.replacements                 340880                       # number of replacements
system.cpu.dcache.ReadReq_hits::.cpu.data    102025214                       # number of ReadReq hits
system.cpu.dcache.ReadReq_hits::total       102025214                       # number of ReadReq hits
system.cpu.dcache.ReadReq_misses::.cpu.data       250774                       # number of ReadReq misses
system.cpu.dcache.ReadReq_misses::total        250774                       # number of ReadReq misses
system.cpu.dcache.ReadReq_miss_latency::.cpu.data  17329653500                       # number of ReadReq miss cycles
system.cpu.dcache.ReadReq_miss_latency::total  17329653500                       # number of ReadReq miss cycles
system.cpu.dcache.ReadReq_accesses::.cpu.data    102275988                       # number of ReadReq accesses(hits+misses)
system.cpu.dcache.ReadReq_accesses::total    102275988                       # number of ReadReq accesses(hits+misses)
system.cpu.dcache.ReadReq_miss_rate::.cpu.data     0.002452                       # miss rate for ReadReq accesses
system.cpu.dcache.ReadReq_miss_rate::total     0.002452                       # miss rate for ReadReq accesses
system.cpu.dcache.ReadReq_avg_miss_latency::.cpu.data 69104.665954                       # average ReadReq miss latency
system.cpu.dcache.ReadReq_avg_miss_latency::total 69104.665954                       # average ReadReq miss latency
system.cpu.dcache.ReadReq_mshr_hits::.cpu.data        29202                       # number of ReadReq MSHR hits
system.cpu.dcache.ReadReq_mshr_hits::total        29202                       # number of ReadReq MSHR hits
system.cpu.dcache.ReadReq_mshr_misses::.cpu.data       221572                       # number of ReadReq MSHR misses
system.cpu.dcache.ReadReq_mshr_misses::total       221572                       # number of ReadReq MSHR misses
system.cpu.dcache.ReadReq_mshr_uncacheable::.cpu.data          445                       # number of ReadReq MSHR uncacheable
system.cpu.dcache.ReadReq_mshr_uncacheable::total          445                       # number of ReadReq MSHR uncacheable
system.cpu.dcache.ReadReq_mshr_miss_latency::.cpu.data  15159282000                       # number of ReadReq MSHR miss cycles
system.cpu.dcache.ReadReq_mshr_miss_latency::total  15159282000                       # number of ReadReq MSHR miss cycles
system.cpu.dcache.ReadReq_mshr_uncacheable_latency::.cpu.data     87625000                       # number of ReadReq MSHR uncacheable cycles
system.cpu.dcache.ReadReq_mshr_uncacheable_latency::total     87625000                       # number of ReadReq MSHR uncacheable cycles
system.cpu.dcache.ReadReq_mshr_miss_rate::.cpu.data     0.002166                       # mshr miss rate for ReadReq accesses
system.cpu.dcache.ReadReq_mshr_miss_rate::total     0.002166                       # mshr miss rate for ReadReq accesses
system.cpu.dcache.ReadReq_avg_mshr_miss_latency::.cpu.data 68416.957016                       # average ReadReq mshr miss latency
system.cpu.dcache.ReadReq_avg_mshr_miss_latency::total 68416.957016                       # average ReadReq mshr miss latency
system.cpu.dcache.ReadReq_avg_mshr_uncacheable_latency::.cpu.data 196910.112360                       # average ReadReq mshr uncacheable latency
system.cpu.dcache.ReadReq_avg_mshr_uncacheable_latency::total 196910.112360                       # average ReadReq mshr uncacheable latency
system.cpu.dcache.WriteReq_hits::.cpu.data     44378996                       # number of WriteReq hits
system.cpu.dcache.WriteReq_hits::total       44378996                       # number of WriteReq hits
system.cpu.dcache.WriteReq_misses::.cpu.data       213260                       # number of WriteReq misses
system.cpu.dcache.WriteReq_misses::total       213260                       # number of WriteReq misses
system.cpu.dcache.WriteReq_miss_latency::.cpu.data  13591182500                       # number of WriteReq miss cycles
system.cpu.dcache.WriteReq_miss_latency::total  13591182500                       # number of WriteReq miss cycles
system.cpu.dcache.WriteReq_accesses::.cpu.data     44592256                       # number of WriteReq accesses(hits+misses)
system.cpu.dcache.WriteReq_accesses::total     44592256                       # number of WriteReq accesses(hits+misses)
system.cpu.dcache.WriteReq_miss_rate::.cpu.data     0.004782                       # miss rate for WriteReq accesses
system.cpu.dcache.WriteReq_miss_rate::total     0.004782                       # miss rate for WriteReq accesses
system.cpu.dcache.WriteReq_avg_miss_latency::.cpu.data 63730.575354                       # average WriteReq miss latency
system.cpu.dcache.WriteReq_avg_miss_latency::total 63730.575354                       # average WriteReq miss latency
system.cpu.dcache.WriteReq_mshr_hits::.cpu.data        95206                       # number of WriteReq MSHR hits
system.cpu.dcache.WriteReq_mshr_hits::total        95206                       # number of WriteReq MSHR hits
system.cpu.dcache.WriteReq_mshr_misses::.cpu.data       118054                       # number of WriteReq MSHR misses
system.cpu.dcache.WriteReq_mshr_misses::total       118054                       # number of WriteReq MSHR misses
system.cpu.dcache.WriteReq_mshr_uncacheable::.cpu.data         1103                       # number of WriteReq MSHR uncacheable
system.cpu.dcache.WriteReq_mshr_uncacheable::total         1103                       # number of WriteReq MSHR uncacheable
system.cpu.dcache.WriteReq_mshr_miss_latency::.cpu.data   7555865500                       # number of WriteReq MSHR miss cycles
system.cpu.dcache.WriteReq_mshr_miss_latency::total   7555865500                       # number of WriteReq MSHR miss cycles
system.cpu.dcache.WriteReq_mshr_miss_rate::.cpu.data     0.002647                       # mshr miss rate for WriteReq accesses
system.cpu.dcache.WriteReq_mshr_miss_rate::total     0.002647                       # mshr miss rate for WriteReq accesses
system.cpu.dcache.WriteReq_avg_mshr_miss_latency::.cpu.data 64003.468752                       # average WriteReq mshr miss latency
system.cpu.dcache.WriteReq_avg_mshr_miss_latency::total 64003.468752                       # average WriteReq mshr miss latency
system.cpu.dcache.LoadLockedReq_hits::.cpu.data        10024                       # number of LoadLockedReq hits
system.cpu.dcache.LoadLockedReq_hits::total        10024                       # number of LoadLockedReq hits
system.cpu.dcache.LoadLockedReq_misses::.cpu.data         1259                       # number of LoadLockedReq misses
system.cpu.dcache.LoadLockedReq_misses::total         1259                       # number of LoadLockedReq misses
system.cpu.dcache.LoadLockedReq_miss_latency::.cpu.data     92777500                       # number of LoadLockedReq miss cycles
system.cpu.dcache.LoadLockedReq_miss_latency::total     92777500                       # number of LoadLockedReq miss cycles
system.cpu.dcache.LoadLockedReq_accesses::.cpu.data        11283                       # number of LoadLockedReq accesses(hits+misses)
system.cpu.dcache.LoadLockedReq_accesses::total        11283                       # number of LoadLockedReq accesses(hits+misses)
system.cpu.dcache.LoadLockedReq_miss_rate::.cpu.data     0.111584                       # miss rate for LoadLockedReq accesses
system.cpu.dcache.LoadLockedReq_miss_rate::total     0.111584                       # miss rate for LoadLockedReq accesses
system.cpu.dcache.LoadLockedReq_avg_miss_latency::.cpu.data 73691.421763                       # average LoadLockedReq miss latency
system.cpu.dcache.LoadLockedReq_avg_miss_latency::total 73691.421763                       # average LoadLockedReq miss latency
system.cpu.dcache.LoadLockedReq_mshr_hits::.cpu.data            1                       # number of LoadLockedReq MSHR hits
system.cpu.dcache.LoadLockedReq_mshr_hits::total            1                       # number of LoadLockedReq MSHR hits
system.cpu.dcache.LoadLockedReq_mshr_misses::.cpu.data         1258                       # number of LoadLockedReq MSHR misses
system.cpu.dcache.LoadLockedReq_mshr_misses::total         1258                       # number of LoadLockedReq MSHR misses
system.cpu.dcache.LoadLockedReq_mshr_miss_latency::.cpu.data     91457500                       # number of LoadLockedReq MSHR miss cycles
system.cpu.dcache.LoadLockedReq_mshr_miss_latency::total     91457500                       # number of LoadLockedReq MSHR miss cycles
system.cpu.dcache.LoadLockedReq_mshr_miss_rate::.cpu.data     0.111495                       # mshr miss rate for LoadLockedReq accesses
system.cpu.dcache.LoadLockedReq_mshr_miss_rate::total     0.111495                       # mshr miss rate for LoadLockedReq accesses
system.cpu.dcache.LoadLockedReq_avg_mshr_miss_latency::.cpu.data 72700.715421                       # average LoadLockedReq mshr miss latency
system.cpu.dcache.LoadLockedReq_avg_mshr_miss_latency::total 72700.715421                       # average LoadLockedReq mshr miss latency
system.cpu.dcache.StoreCondReq_hits::.cpu.data        11259                       # number of StoreCondReq hits
system.cpu.dcache.StoreCondReq_hits::total        11259                       # number of StoreCondReq hits
system.cpu.dcache.StoreCondReq_accesses::.cpu.data        11259                       # number of StoreCondReq accesses(hits+misses)
system.cpu.dcache.StoreCondReq_accesses::total        11259                       # number of StoreCondReq accesses(hits+misses)
system.cpu.dcache.tags.pwrStateResidencyTicks::UNDEFINED 539573077000                       # Cumulative time (in ticks) in various power states
system.cpu.dcache.tags.tagsinuse                 1024                       # Cycle average of tags in use
system.cpu.dcache.tags.total_refs           146821130                       # Total number of references to valid blocks.
system.cpu.dcache.tags.sampled_refs            341904                       # Sample count of references to valid blocks.
system.cpu.dcache.tags.avg_refs            429.422089                       # Average number of references to valid blocks.
system.cpu.dcache.tags.warmup_cycle                 0                       # Cycle when the warmup percentage was hit.
system.cpu.dcache.tags.occ_blocks::.cpu.data         1024                       # Average occupied blocks per requestor
system.cpu.dcache.tags.occ_percent::.cpu.data            1                       # Average percentage of cache occupancy
system.cpu.dcache.tags.occ_percent::total            1                       # Average percentage of cache occupancy
system.cpu.dcache.tags.occ_task_id_blocks::1024         1024                       # Occupied blocks per task id
system.cpu.dcache.tags.age_task_id_blocks_1024::0           30                       # Occupied blocks per task id
system.cpu.dcache.tags.age_task_id_blocks_1024::1           98                       # Occupied blocks per task id
system.cpu.dcache.tags.age_task_id_blocks_1024::2          522                       # Occupied blocks per task id
system.cpu.dcache.tags.age_task_id_blocks_1024::3          337                       # Occupied blocks per task id
system.cpu.dcache.tags.age_task_id_blocks_1024::4           37                       # Occupied blocks per task id
system.cpu.dcache.tags.occ_task_id_percent::1024            1                       # Percentage of cache occupancy per task id
system.cpu.dcache.tags.tag_accesses         294122452                       # Number of tag accesses
system.cpu.dcache.tags.data_accesses        294122452                       # Number of data accesses

---------- End Simulation Statistics   ----------
