
---------- Begin Simulation Statistics ----------
final_tick                               2541872705500                       # Number of ticks from beginning of simulation (restored from checkpoints and never reset)
host_inst_rate                                 213385                       # Simulator instruction rate (inst/s)
host_mem_usage                                 740736                       # Number of bytes of host memory used
host_op_rate                                   213383                       # Simulator op (including micro ops) rate (op/s)
host_seconds                                    19.65                       # Real time elapsed on the host
host_tick_rate                              603629444                       # Simulator tick rate (ticks/s)
sim_freq                                 1000000000000                       # Frequency of simulated ticks
sim_insts                                     4193525                       # Number of instructions simulated
sim_ops                                       4193525                       # Number of ops (including micro ops) simulated
sim_seconds                                  0.011863                       # Number of seconds simulated
sim_ticks                                 11862860500                       # Number of ticks simulated
system.cpu.branchPred.BTBCorrect                    0                       # Number of correct BTB predictions (this stat may not work properly.
system.cpu.branchPred.BTBHitPct             45.388493                       # BTB Hit Percentage
system.cpu.branchPred.BTBHits                  391183                       # Number of BTB hits
system.cpu.branchPred.BTBLookups               861855                       # Number of BTB lookups
system.cpu.branchPred.RASInCorrect               2395                       # Number of incorrect RAS predictions.
system.cpu.branchPred.condIncorrect             81569                       # Number of conditional branches incorrect
system.cpu.branchPred.condPredicted            805314                       # Number of conditional branches predicted
system.cpu.branchPred.indirectHits              53034                       # Number of indirect target hits.
system.cpu.branchPred.indirectLookups          278457                       # Number of indirect predictor lookups.
system.cpu.branchPred.indirectMisses           225423                       # Number of indirect misses.
system.cpu.branchPred.lookups                  980230                       # Number of BP lookups
system.cpu.branchPred.usedRAS                   65075                       # Number of times the RAS was used to get a target.
system.cpu.branchPredindirectMispredicted        26814                       # Number of mispredicted indirect branches.
system.cpu.committedInsts                     4193525                       # Number of instructions committed
system.cpu.committedOps                       4193525                       # Number of ops (including micro ops) committed
system.cpu.cpi                               5.654443                       # CPI: cycles per instruction
system.cpu.discardedOps                        192040                       # Number of ops (including micro ops) which were discarded before commit
system.cpu.dtb.data_accesses                   605980                       # DTB accesses
system.cpu.dtb.data_acv                           132                       # DTB access violations
system.cpu.dtb.data_hits                      1450891                       # DTB hits
system.cpu.dtb.data_misses                       7561                       # DTB misses
system.cpu.dtb.fetch_accesses                       0                       # ITB accesses
system.cpu.dtb.fetch_acv                            0                       # ITB acv
system.cpu.dtb.fetch_hits                           0                       # ITB hits
system.cpu.dtb.fetch_misses                         0                       # ITB misses
system.cpu.dtb.read_accesses                   404651                       # DTB read accesses
system.cpu.dtb.read_acv                            43                       # DTB read access violations
system.cpu.dtb.read_hits                       848724                       # DTB read hits
system.cpu.dtb.read_misses                       6702                       # DTB read misses
system.cpu.dtb.write_accesses                  201329                       # DTB write accesses
system.cpu.dtb.write_acv                           89                       # DTB write access violations
system.cpu.dtb.write_hits                      602167                       # DTB write hits
system.cpu.dtb.write_misses                       859                       # DTB write misses
system.cpu.fetch2.amo_instructions                  0                       # Number of memory atomic instructions successfully decoded
system.cpu.fetch2.fp_instructions               18040                       # Number of floating point instructions successfully decoded
system.cpu.fetch2.int_instructions            3388227                       # Number of integer instructions successfully decoded
system.cpu.fetch2.load_instructions           1032751                       # Number of memory load instructions successfully decoded
system.cpu.fetch2.store_instructions           661907                       # Number of memory store instructions successfully decoded
system.cpu.fetch2.vec_instructions                  0                       # Number of SIMD instructions successfully decoded
system.cpu.idleCycles                        16727100                       # Total number of cycles that the object has spent stopped
system.cpu.ipc                               0.176852                       # IPC: instructions per cycle
system.cpu.itb.data_accesses                        0                       # DTB accesses
system.cpu.itb.data_acv                             0                       # DTB access violations
system.cpu.itb.data_hits                            0                       # DTB hits
system.cpu.itb.data_misses                          0                       # DTB misses
system.cpu.itb.fetch_accesses                  977788                       # ITB accesses
system.cpu.itb.fetch_acv                          920                       # ITB acv
system.cpu.itb.fetch_hits                      970742                       # ITB hits
system.cpu.itb.fetch_misses                      7046                       # ITB misses
system.cpu.itb.read_accesses                        0                       # DTB read accesses
system.cpu.itb.read_acv                             0                       # DTB read access violations
system.cpu.itb.read_hits                            0                       # DTB read hits
system.cpu.itb.read_misses                          0                       # DTB read misses
system.cpu.itb.write_accesses                       0                       # DTB write accesses
system.cpu.itb.write_acv                            0                       # DTB write access violations
system.cpu.itb.write_hits                           0                       # DTB write hits
system.cpu.itb.write_misses                         0                       # DTB write misses
system.cpu.kern.callpal::swpctx                   574      9.46%      9.46% # number of callpals executed
system.cpu.kern.callpal::tbi                       25      0.41%      9.87% # number of callpals executed
system.cpu.kern.callpal::swpipl                  4204     69.29%     79.17% # number of callpals executed
system.cpu.kern.callpal::rdps                      48      0.79%     79.96% # number of callpals executed
system.cpu.kern.callpal::wrusp                      4      0.07%     80.02% # number of callpals executed
system.cpu.kern.callpal::rdusp                      3      0.05%     80.07% # number of callpals executed
system.cpu.kern.callpal::rti                      896     14.77%     94.84% # number of callpals executed
system.cpu.kern.callpal::callsys                  235      3.87%     98.71% # number of callpals executed
system.cpu.kern.callpal::imb                       78      1.29%    100.00% # number of callpals executed
system.cpu.kern.callpal::total                   6067                       # number of callpals executed
system.cpu.kern.inst.arm                            0                       # number of arm instructions executed
system.cpu.kern.inst.hwrei                      14410                       # number of hwrei instructions executed
system.cpu.kern.inst.quiesce                        9                       # number of quiesce instructions executed
system.cpu.kern.ipl_count::0                     2426     47.41%     47.41% # number of times we switched to this ipl
system.cpu.kern.ipl_count::21                       5      0.10%     47.51% # number of times we switched to this ipl
system.cpu.kern.ipl_count::22                      12      0.23%     47.74% # number of times we switched to this ipl
system.cpu.kern.ipl_count::31                    2674     52.26%    100.00% # number of times we switched to this ipl
system.cpu.kern.ipl_count::total                 5117                       # number of times we switched to this ipl
system.cpu.kern.ipl_good::0                      2413     49.82%     49.82% # number of times we switched to this ipl from a different ipl
system.cpu.kern.ipl_good::21                        5      0.10%     49.93% # number of times we switched to this ipl from a different ipl
system.cpu.kern.ipl_good::22                       12      0.25%     50.18% # number of times we switched to this ipl from a different ipl
system.cpu.kern.ipl_good::31                     2413     49.82%    100.00% # number of times we switched to this ipl from a different ipl
system.cpu.kern.ipl_good::total                  4843                       # number of times we switched to this ipl from a different ipl
system.cpu.kern.ipl_ticks::0              10954917000     92.31%     92.31% # number of cycles we spent at this ipl
system.cpu.kern.ipl_ticks::21                 8929500      0.08%     92.39% # number of cycles we spent at this ipl
system.cpu.kern.ipl_ticks::22                17156500      0.14%     92.53% # number of cycles we spent at this ipl
system.cpu.kern.ipl_ticks::31               886209000      7.47%    100.00% # number of cycles we spent at this ipl
system.cpu.kern.ipl_ticks::total          11867212000                       # number of cycles we spent at this ipl
system.cpu.kern.ipl_used::0                  0.994641                       # fraction of swpipl calls that actually changed the ipl
system.cpu.kern.ipl_used::21                        1                       # fraction of swpipl calls that actually changed the ipl
system.cpu.kern.ipl_used::22                        1                       # fraction of swpipl calls that actually changed the ipl
system.cpu.kern.ipl_used::31                 0.902393                       # fraction of swpipl calls that actually changed the ipl
system.cpu.kern.ipl_used::total              0.946453                       # fraction of swpipl calls that actually changed the ipl
system.cpu.kern.mode_good::kernel                 871                      
system.cpu.kern.mode_good::user                   871                      
system.cpu.kern.mode_good::idle                     0                      
system.cpu.kern.mode_switch::kernel              1470                       # number of protection mode switches
system.cpu.kern.mode_switch::user                 871                       # number of protection mode switches
system.cpu.kern.mode_switch::idle                   0                       # number of protection mode switches
system.cpu.kern.mode_switch_good::kernel     0.592517                       # fraction of useful protection mode switches
system.cpu.kern.mode_switch_good::user              1                       # fraction of useful protection mode switches
system.cpu.kern.mode_switch_good::idle            nan                       # fraction of useful protection mode switches
system.cpu.kern.mode_switch_good::total      0.744126                       # fraction of useful protection mode switches
system.cpu.kern.mode_ticks::kernel         8007272000     67.47%     67.47% # number of ticks spent at the given mode
system.cpu.kern.mode_ticks::user           3859940000     32.53%    100.00% # number of ticks spent at the given mode
system.cpu.kern.mode_ticks::idle                    0      0.00%    100.00% # number of ticks spent at the given mode
system.cpu.kern.swap_context                      574                       # number of times the context was actually changed
system.cpu.numCycles                         23712048                       # number of cpu cycles simulated
system.cpu.numFetchSuspends                         9                       # Number of times Execute suspended instruction fetching
system.cpu.numWorkItemsCompleted                    0                       # number of work items this cpu completed
system.cpu.numWorkItemsStarted                      0                       # number of work items this cpu started
system.cpu.op_class_0::No_OpClass               85386      2.04%      2.04% # Class of committed instruction
system.cpu.op_class_0::IntAlu                 2540083     60.57%     62.61% # Class of committed instruction
system.cpu.op_class_0::IntMult                   3675      0.09%     62.70% # Class of committed instruction
system.cpu.op_class_0::IntDiv                       0      0.00%     62.70% # Class of committed instruction
system.cpu.op_class_0::FloatAdd                  8286      0.20%     62.89% # Class of committed instruction
system.cpu.op_class_0::FloatCmp                     0      0.00%     62.89% # Class of committed instruction
system.cpu.op_class_0::FloatCvt                     0      0.00%     62.89% # Class of committed instruction
system.cpu.op_class_0::FloatMult                    0      0.00%     62.89% # Class of committed instruction
system.cpu.op_class_0::FloatMultAcc                 0      0.00%     62.89% # Class of committed instruction
system.cpu.op_class_0::FloatDiv                  1593      0.04%     62.93% # Class of committed instruction
system.cpu.op_class_0::FloatMisc                    0      0.00%     62.93% # Class of committed instruction
system.cpu.op_class_0::FloatSqrt                    0      0.00%     62.93% # Class of committed instruction
system.cpu.op_class_0::SimdAdd                      0      0.00%     62.93% # Class of committed instruction
system.cpu.op_class_0::SimdAddAcc                   0      0.00%     62.93% # Class of committed instruction
system.cpu.op_class_0::SimdAlu                      0      0.00%     62.93% # Class of committed instruction
system.cpu.op_class_0::SimdCmp                      0      0.00%     62.93% # Class of committed instruction
system.cpu.op_class_0::SimdCvt                      0      0.00%     62.93% # Class of committed instruction
system.cpu.op_class_0::SimdMisc                     0      0.00%     62.93% # Class of committed instruction
system.cpu.op_class_0::SimdMult                     0      0.00%     62.93% # Class of committed instruction
system.cpu.op_class_0::SimdMultAcc                  0      0.00%     62.93% # Class of committed instruction
system.cpu.op_class_0::SimdShift                    0      0.00%     62.93% # Class of committed instruction
system.cpu.op_class_0::SimdShiftAcc                 0      0.00%     62.93% # Class of committed instruction
system.cpu.op_class_0::SimdDiv                      0      0.00%     62.93% # Class of committed instruction
system.cpu.op_class_0::SimdSqrt                     0      0.00%     62.93% # Class of committed instruction
system.cpu.op_class_0::SimdFloatAdd                 0      0.00%     62.93% # Class of committed instruction
system.cpu.op_class_0::SimdFloatAlu                 0      0.00%     62.93% # Class of committed instruction
system.cpu.op_class_0::SimdFloatCmp                 0      0.00%     62.93% # Class of committed instruction
system.cpu.op_class_0::SimdFloatCvt                 0      0.00%     62.93% # Class of committed instruction
system.cpu.op_class_0::SimdFloatDiv                 0      0.00%     62.93% # Class of committed instruction
system.cpu.op_class_0::SimdFloatMisc                0      0.00%     62.93% # Class of committed instruction
system.cpu.op_class_0::SimdFloatMult                0      0.00%     62.93% # Class of committed instruction
system.cpu.op_class_0::SimdFloatMultAcc             0      0.00%     62.93% # Class of committed instruction
system.cpu.op_class_0::SimdFloatSqrt                0      0.00%     62.93% # Class of committed instruction
system.cpu.op_class_0::SimdReduceAdd                0      0.00%     62.93% # Class of committed instruction
system.cpu.op_class_0::SimdReduceAlu                0      0.00%     62.93% # Class of committed instruction
system.cpu.op_class_0::SimdReduceCmp                0      0.00%     62.93% # Class of committed instruction
system.cpu.op_class_0::SimdFloatReduceAdd            0      0.00%     62.93% # Class of committed instruction
system.cpu.op_class_0::SimdFloatReduceCmp            0      0.00%     62.93% # Class of committed instruction
system.cpu.op_class_0::SimdAes                      0      0.00%     62.93% # Class of committed instruction
system.cpu.op_class_0::SimdAesMix                   0      0.00%     62.93% # Class of committed instruction
system.cpu.op_class_0::SimdSha1Hash                 0      0.00%     62.93% # Class of committed instruction
system.cpu.op_class_0::SimdSha1Hash2                0      0.00%     62.93% # Class of committed instruction
system.cpu.op_class_0::SimdSha256Hash               0      0.00%     62.93% # Class of committed instruction
system.cpu.op_class_0::SimdSha256Hash2              0      0.00%     62.93% # Class of committed instruction
system.cpu.op_class_0::SimdShaSigma2                0      0.00%     62.93% # Class of committed instruction
system.cpu.op_class_0::SimdShaSigma3                0      0.00%     62.93% # Class of committed instruction
system.cpu.op_class_0::SimdPredAlu                  0      0.00%     62.93% # Class of committed instruction
system.cpu.op_class_0::MemRead                 838729     20.00%     82.93% # Class of committed instruction
system.cpu.op_class_0::MemWrite                592202     14.12%     97.05% # Class of committed instruction
system.cpu.op_class_0::FloatMemRead              9988      0.24%     97.29% # Class of committed instruction
system.cpu.op_class_0::FloatMemWrite             8788      0.21%     97.50% # Class of committed instruction
system.cpu.op_class_0::IprAccess               104795      2.50%    100.00% # Class of committed instruction
system.cpu.op_class_0::InstPrefetch                 0      0.00%    100.00% # Class of committed instruction
system.cpu.op_class_0::total                  4193525                       # Class of committed instruction
system.cpu.quiesceCycles                        13673                       # Total number of cycles that CPU has spent quiesced or waiting for an interrupt
system.cpu.tickCycles                         6984948                       # Number of cycles that the object actually ticked
system.disk0.dma_read_bytes                         0                       # Number of bytes transfered via DMA reads (not PRD).
system.disk0.dma_read_full_pages                    0                       # Number of full page size DMA reads (not PRD).
system.disk0.dma_read_txs                           0                       # Number of DMA read transactions (not PRD).
system.disk0.dma_write_bytes                    12288                       # Number of bytes transfered via DMA writes.
system.disk0.dma_write_full_pages                   0                       # Number of full page size DMA writes.
system.disk0.dma_write_txs                          3                       # Number of DMA write transactions.
system.disk2.dma_read_bytes                         0                       # Number of bytes transfered via DMA reads (not PRD).
system.disk2.dma_read_full_pages                    0                       # Number of full page size DMA reads (not PRD).
system.disk2.dma_read_txs                           0                       # Number of DMA read transactions (not PRD).
system.disk2.dma_write_bytes                        0                       # Number of bytes transfered via DMA writes.
system.disk2.dma_write_full_pages                   0                       # Number of full page size DMA writes.
system.disk2.dma_write_txs                          0                       # Number of DMA write transactions.
system.membus.snoop_filter.hit_multi_requests          442                       # Number of requests hitting in the snoop filter with multiple (>1) holders of the requested data.
system.membus.snoop_filter.hit_multi_snoops            0                       # Number of snoops hitting in the snoop filter with multiple (>1) holders of the requested data.
system.membus.snoop_filter.hit_single_requests       155592                       # Number of requests hitting in the snoop filter with a single holder of the requested data.
system.membus.snoop_filter.hit_single_snoops            0                       # Number of snoops hitting in the snoop filter with a single holder of the requested data.
system.membus.snoop_filter.tot_requests        312790                       # Total number of requests made to the snoop filter.
system.membus.snoop_filter.tot_snoops               0                       # Total number of snoops made to the snoop filter.
system.tsunami.ethernet.coalescedRxDesc           nan                       # average number of RxDesc's coalesced into each post
system.tsunami.ethernet.coalescedRxIdle           nan                       # average number of RxIdle's coalesced into each post
system.tsunami.ethernet.coalescedRxOk             nan                       # average number of RxOk's coalesced into each post
system.tsunami.ethernet.coalescedRxOrn            nan                       # average number of RxOrn's coalesced into each post
system.tsunami.ethernet.coalescedSwi              nan                       # average number of Swi's coalesced into each post
system.tsunami.ethernet.coalescedTotal            nan                       # average number of interrupts coalesced into each post
system.tsunami.ethernet.coalescedTxDesc           nan                       # average number of TxDesc's coalesced into each post
system.tsunami.ethernet.coalescedTxIdle           nan                       # average number of TxIdle's coalesced into each post
system.tsunami.ethernet.coalescedTxOk             nan                       # average number of TxOk's coalesced into each post
system.tsunami.ethernet.descDMAReads                0                       # Number of descriptors the device read w/ DMA
system.tsunami.ethernet.descDMAWrites               0                       # Number of descriptors the device wrote w/ DMA
system.tsunami.ethernet.descDmaReadBytes            0                       # number of descriptor bytes read w/ DMA
system.tsunami.ethernet.descDmaWriteBytes            0                       # number of descriptor bytes write w/ DMA
system.tsunami.ethernet.droppedPackets              0                       # number of packets dropped
system.tsunami.ethernet.postedInterrupts            0                       # number of posts to CPU
system.tsunami.ethernet.postedRxDesc                0                       # number of RxDesc interrupts posted to CPU
system.tsunami.ethernet.postedRxIdle                0                       # number of rxIdle interrupts posted to CPU
system.tsunami.ethernet.postedRxOk                  0                       # number of RxOk interrupts posted to CPU
system.tsunami.ethernet.postedRxOrn                 0                       # number of RxOrn posted to CPU
system.tsunami.ethernet.postedSwi                   0                       # number of software interrupts posted to CPU
system.tsunami.ethernet.postedTxDesc                0                       # number of TxDesc interrupts posted to CPU
system.tsunami.ethernet.postedTxIdle                0                       # number of TxIdle interrupts posted to CPU
system.tsunami.ethernet.postedTxOk                  0                       # number of TxOk interrupts posted to CPU
system.tsunami.ethernet.totalRxDesc                 0                       # total number of RxDesc written to ISR
system.tsunami.ethernet.totalRxIdle                 0                       # total number of RxIdle written to ISR
system.tsunami.ethernet.totalRxOk                   0                       # total number of RxOk written to ISR
system.tsunami.ethernet.totalRxOrn                  0                       # total number of RxOrn written to ISR
system.tsunami.ethernet.totalSwi                    0                       # total number of Swi written to ISR
system.tsunami.ethernet.totalTxDesc                 0                       # total number of TxDesc written to ISR
system.tsunami.ethernet.totalTxIdle                 0                       # total number of TxIdle written to ISR
system.tsunami.ethernet.totalTxOk                   0                       # total number of TxOk written to ISR
system.bridge.pwrStateResidencyTicks::UNDEFINED 2541872705500                       # Cumulative time (in ticks) in various power states
system.voltage_domain.voltage                       1                       # Voltage in Volts
system.iocache.pwrStateResidencyTicks::UNDEFINED 2541872705500                       # Cumulative time (in ticks) in various power states
system.iocache.demand_misses::.tsunami.ide          195                       # number of demand (read+write) misses
system.iocache.demand_misses::total               195                       # number of demand (read+write) misses
system.iocache.overall_misses::.tsunami.ide          195                       # number of overall misses
system.iocache.overall_misses::total              195                       # number of overall misses
system.iocache.demand_miss_latency::.tsunami.ide     22887452                       # number of demand (read+write) miss cycles
system.iocache.demand_miss_latency::total     22887452                       # number of demand (read+write) miss cycles
system.iocache.overall_miss_latency::.tsunami.ide     22887452                       # number of overall miss cycles
system.iocache.overall_miss_latency::total     22887452                       # number of overall miss cycles
system.iocache.demand_accesses::.tsunami.ide          195                       # number of demand (read+write) accesses
system.iocache.demand_accesses::total             195                       # number of demand (read+write) accesses
system.iocache.overall_accesses::.tsunami.ide          195                       # number of overall (read+write) accesses
system.iocache.overall_accesses::total            195                       # number of overall (read+write) accesses
system.iocache.demand_miss_rate::.tsunami.ide            1                       # miss rate for demand accesses
system.iocache.demand_miss_rate::total              1                       # miss rate for demand accesses
system.iocache.overall_miss_rate::.tsunami.ide            1                       # miss rate for overall accesses
system.iocache.overall_miss_rate::total             1                       # miss rate for overall accesses
system.iocache.demand_avg_miss_latency::.tsunami.ide 117371.548718                       # average overall miss latency
system.iocache.demand_avg_miss_latency::total 117371.548718                       # average overall miss latency
system.iocache.overall_avg_miss_latency::.tsunami.ide 117371.548718                       # average overall miss latency
system.iocache.overall_avg_miss_latency::total 117371.548718                       # average overall miss latency
system.iocache.blocked_cycles::no_mshrs             0                       # number of cycles access was blocked
system.iocache.blocked_cycles::no_targets            0                       # number of cycles access was blocked
system.iocache.blocked::no_mshrs                    0                       # number of cycles access was blocked
system.iocache.blocked::no_targets                  0                       # number of cycles access was blocked
system.iocache.avg_blocked_cycles::no_mshrs          nan                       # average number of cycles each access was blocked
system.iocache.avg_blocked_cycles::no_targets          nan                       # average number of cycles each access was blocked
system.iocache.writebacks::.writebacks            176                       # number of writebacks
system.iocache.writebacks::total                  176                       # number of writebacks
system.iocache.demand_mshr_misses::.tsunami.ide          195                       # number of demand (read+write) MSHR misses
system.iocache.demand_mshr_misses::total          195                       # number of demand (read+write) MSHR misses
system.iocache.overall_mshr_misses::.tsunami.ide          195                       # number of overall MSHR misses
system.iocache.overall_mshr_misses::total          195                       # number of overall MSHR misses
system.iocache.demand_mshr_miss_latency::.tsunami.ide     13121489                       # number of demand (read+write) MSHR miss cycles
system.iocache.demand_mshr_miss_latency::total     13121489                       # number of demand (read+write) MSHR miss cycles
system.iocache.overall_mshr_miss_latency::.tsunami.ide     13121489                       # number of overall MSHR miss cycles
system.iocache.overall_mshr_miss_latency::total     13121489                       # number of overall MSHR miss cycles
system.iocache.demand_mshr_miss_rate::.tsunami.ide            1                       # mshr miss rate for demand accesses
system.iocache.demand_mshr_miss_rate::total            1                       # mshr miss rate for demand accesses
system.iocache.overall_mshr_miss_rate::.tsunami.ide            1                       # mshr miss rate for overall accesses
system.iocache.overall_mshr_miss_rate::total            1                       # mshr miss rate for overall accesses
system.iocache.demand_avg_mshr_miss_latency::.tsunami.ide 67289.687179                       # average overall mshr miss latency
system.iocache.demand_avg_mshr_miss_latency::total 67289.687179                       # average overall mshr miss latency
system.iocache.overall_avg_mshr_miss_latency::.tsunami.ide 67289.687179                       # average overall mshr miss latency
system.iocache.overall_avg_mshr_miss_latency::total 67289.687179                       # average overall mshr miss latency
system.iocache.replacements                       179                       # number of replacements
system.iocache.ReadReq_misses::.tsunami.ide            3                       # number of ReadReq misses
system.iocache.ReadReq_misses::total                3                       # number of ReadReq misses
system.iocache.ReadReq_miss_latency::.tsunami.ide       349497                       # number of ReadReq miss cycles
system.iocache.ReadReq_miss_latency::total       349497                       # number of ReadReq miss cycles
system.iocache.ReadReq_accesses::.tsunami.ide            3                       # number of ReadReq accesses(hits+misses)
system.iocache.ReadReq_accesses::total              3                       # number of ReadReq accesses(hits+misses)
system.iocache.ReadReq_miss_rate::.tsunami.ide            1                       # miss rate for ReadReq accesses
system.iocache.ReadReq_miss_rate::total             1                       # miss rate for ReadReq accesses
system.iocache.ReadReq_avg_miss_latency::.tsunami.ide       116499                       # average ReadReq miss latency
system.iocache.ReadReq_avg_miss_latency::total       116499                       # average ReadReq miss latency
system.iocache.ReadReq_mshr_misses::.tsunami.ide            3                       # number of ReadReq MSHR misses
system.iocache.ReadReq_mshr_misses::total            3                       # number of ReadReq MSHR misses
system.iocache.ReadReq_mshr_miss_latency::.tsunami.ide       199497                       # number of ReadReq MSHR miss cycles
system.iocache.ReadReq_mshr_miss_latency::total       199497                       # number of ReadReq MSHR miss cycles
system.iocache.ReadReq_mshr_miss_rate::.tsunami.ide            1                       # mshr miss rate for ReadReq accesses
system.iocache.ReadReq_mshr_miss_rate::total            1                       # mshr miss rate for ReadReq accesses
system.iocache.ReadReq_avg_mshr_miss_latency::.tsunami.ide        66499                       # average ReadReq mshr miss latency
system.iocache.ReadReq_avg_mshr_miss_latency::total        66499                       # average ReadReq mshr miss latency
system.iocache.WriteLineReq_misses::.tsunami.ide          192                       # number of WriteLineReq misses
system.iocache.WriteLineReq_misses::total          192                       # number of WriteLineReq misses
system.iocache.WriteLineReq_miss_latency::.tsunami.ide     22537955                       # number of WriteLineReq miss cycles
system.iocache.WriteLineReq_miss_latency::total     22537955                       # number of WriteLineReq miss cycles
system.iocache.WriteLineReq_accesses::.tsunami.ide          192                       # number of WriteLineReq accesses(hits+misses)
system.iocache.WriteLineReq_accesses::total          192                       # number of WriteLineReq accesses(hits+misses)
system.iocache.WriteLineReq_miss_rate::.tsunami.ide            1                       # miss rate for WriteLineReq accesses
system.iocache.WriteLineReq_miss_rate::total            1                       # miss rate for WriteLineReq accesses
system.iocache.WriteLineReq_avg_miss_latency::.tsunami.ide 117385.182292                       # average WriteLineReq miss latency
system.iocache.WriteLineReq_avg_miss_latency::total 117385.182292                       # average WriteLineReq miss latency
system.iocache.WriteLineReq_mshr_misses::.tsunami.ide          192                       # number of WriteLineReq MSHR misses
system.iocache.WriteLineReq_mshr_misses::total          192                       # number of WriteLineReq MSHR misses
system.iocache.WriteLineReq_mshr_miss_latency::.tsunami.ide     12921992                       # number of WriteLineReq MSHR miss cycles
system.iocache.WriteLineReq_mshr_miss_latency::total     12921992                       # number of WriteLineReq MSHR miss cycles
system.iocache.WriteLineReq_mshr_miss_rate::.tsunami.ide            1                       # mshr miss rate for WriteLineReq accesses
system.iocache.WriteLineReq_mshr_miss_rate::total            1                       # mshr miss rate for WriteLineReq accesses
system.iocache.WriteLineReq_avg_mshr_miss_latency::.tsunami.ide 67302.041667                       # average WriteLineReq mshr miss latency
system.iocache.WriteLineReq_avg_mshr_miss_latency::total 67302.041667                       # average WriteLineReq mshr miss latency
system.iocache.tags.pwrStateResidencyTicks::UNDEFINED 2541872705500                       # Cumulative time (in ticks) in various power states
system.iocache.tags.tagsinuse                3.281885                       # Cycle average of tags in use
system.iocache.tags.total_refs                    179                       # Total number of references to valid blocks.
system.iocache.tags.sampled_refs                  179                       # Sample count of references to valid blocks.
system.iocache.tags.avg_refs                        1                       # Average number of references to valid blocks.
system.iocache.tags.warmup_cycle         2539438344000                       # Cycle when the warmup percentage was hit.
system.iocache.tags.occ_blocks::.tsunami.ide     3.281885                       # Average occupied blocks per requestor
system.iocache.tags.occ_percent::.tsunami.ide     0.205118                       # Average percentage of cache occupancy
system.iocache.tags.occ_percent::total       0.205118                       # Average percentage of cache occupancy
system.iocache.tags.occ_task_id_blocks::1023           16                       # Occupied blocks per task id
system.iocache.tags.age_task_id_blocks_1023::3           16                       # Occupied blocks per task id
system.iocache.tags.occ_task_id_percent::1023            1                       # Percentage of cache occupancy per task id
system.iocache.tags.tag_accesses                 1755                       # Number of tag accesses
system.iocache.tags.data_accesses                1755                       # Number of data accesses
system.membus.pwrStateResidencyTicks::UNDEFINED 2541872705500                       # Cumulative time (in ticks) in various power states
system.membus.trans_dist::ReadReq                 108                       # Transaction distribution
system.membus.trans_dist::ReadResp             128129                       # Transaction distribution
system.membus.trans_dist::WriteReq                 99                       # Transaction distribution
system.membus.trans_dist::WriteResp                99                       # Transaction distribution
system.membus.trans_dist::WritebackDirty        34823                       # Transaction distribution
system.membus.trans_dist::WritebackClean        86589                       # Transaction distribution
system.membus.trans_dist::CleanEvict            34159                       # Transaction distribution
system.membus.trans_dist::UpgradeReq               16                       # Transaction distribution
system.membus.trans_dist::ReadExReq             28988                       # Transaction distribution
system.membus.trans_dist::ReadExResp            28988                       # Transaction distribution
system.membus.trans_dist::ReadCleanReq          87179                       # Transaction distribution
system.membus.trans_dist::ReadSharedReq         40844                       # Transaction distribution
system.membus.trans_dist::BadAddressError            2                       # Transaction distribution
system.membus.trans_dist::InvalidateReq           192                       # Transaction distribution
system.membus.pkt_count_system.iocache.mem_side::system.mem_ctrls.port          374                       # Packet count per connected master and slave (bytes)
system.membus.pkt_count_system.iocache.mem_side::total          374                       # Packet count per connected master and slave (bytes)
system.membus.pkt_count_system.cpu.icache.mem_side::system.mem_ctrls.port       260883                       # Packet count per connected master and slave (bytes)
system.membus.pkt_count_system.cpu.icache.mem_side::total       260883                       # Packet count per connected master and slave (bytes)
system.membus.pkt_count_system.cpu.dcache.mem_side::system.bridge.slave          414                       # Packet count per connected master and slave (bytes)
system.membus.pkt_count_system.cpu.dcache.mem_side::system.mem_ctrls.port       208473                       # Packet count per connected master and slave (bytes)
system.membus.pkt_count_system.cpu.dcache.mem_side::system.membus.badaddr_responder.pio            4                       # Packet count per connected master and slave (bytes)
system.membus.pkt_count_system.cpu.dcache.mem_side::total       208891                       # Packet count per connected master and slave (bytes)
system.membus.pkt_count::total                 470148                       # Packet count per connected master and slave (bytes)
system.membus.pkt_size_system.iocache.mem_side::system.mem_ctrls.port        11264                       # Cumulative packet size per connected master and slave (bytes)
system.membus.pkt_size_system.iocache.mem_side::total        11264                       # Cumulative packet size per connected master and slave (bytes)
system.membus.pkt_size_system.cpu.icache.mem_side::system.mem_ctrls.port     11117056                       # Cumulative packet size per connected master and slave (bytes)
system.membus.pkt_size_system.cpu.icache.mem_side::total     11117056                       # Cumulative packet size per connected master and slave (bytes)
system.membus.pkt_size_system.cpu.dcache.mem_side::system.bridge.slave          433                       # Cumulative packet size per connected master and slave (bytes)
system.membus.pkt_size_system.cpu.dcache.mem_side::system.mem_ctrls.port      6686336                       # Cumulative packet size per connected master and slave (bytes)
system.membus.pkt_size_system.cpu.dcache.mem_side::total      6686769                       # Cumulative packet size per connected master and slave (bytes)
system.membus.pkt_size::total                17815089                       # Cumulative packet size per connected master and slave (bytes)
system.membus.snoops                               67                       # Total snoops (count)
system.membus.snoopTraffic                       4288                       # Total snoop traffic (bytes)
system.membus.snoop_fanout::samples            157426                       # Request fanout histogram
system.membus.snoop_fanout::mean             0.002820                       # Request fanout histogram
system.membus.snoop_fanout::stdev            0.053032                       # Request fanout histogram
system.membus.snoop_fanout::underflows              0      0.00%      0.00% # Request fanout histogram
system.membus.snoop_fanout::0                  156982     99.72%     99.72% # Request fanout histogram
system.membus.snoop_fanout::1                     444      0.28%    100.00% # Request fanout histogram
system.membus.snoop_fanout::2                       0      0.00%    100.00% # Request fanout histogram
system.membus.snoop_fanout::3                       0      0.00%    100.00% # Request fanout histogram
system.membus.snoop_fanout::overflows               0      0.00%    100.00% # Request fanout histogram
system.membus.snoop_fanout::min_value               0                       # Request fanout histogram
system.membus.snoop_fanout::max_value               1                       # Request fanout histogram
system.membus.snoop_fanout::total              157426                       # Request fanout histogram
system.membus.reqLayer0.occupancy              352500                       # Layer occupancy (ticks)
system.membus.reqLayer0.utilization               0.0                       # Layer utilization (%)
system.membus.reqLayer1.occupancy           820923540                       # Layer occupancy (ticks)
system.membus.reqLayer1.utilization               6.9                       # Layer utilization (%)
system.membus.reqLayer2.occupancy                3000                       # Layer occupancy (ticks)
system.membus.reqLayer2.utilization               0.0                       # Layer utilization (%)
system.membus.respLayer1.occupancy              17997                       # Layer occupancy (ticks)
system.membus.respLayer1.utilization              0.0                       # Layer utilization (%)
system.membus.respLayer3.occupancy          375648750                       # Layer occupancy (ticks)
system.membus.respLayer3.utilization              3.2                       # Layer utilization (%)
system.membus.badaddr_responder.pwrStateResidencyTicks::UNDEFINED 2541872705500                       # Cumulative time (in ticks) in various power states
system.membus.respLayer2.occupancy          462288000                       # Layer occupancy (ticks)
system.membus.respLayer2.utilization              3.9                       # Layer utilization (%)
system.clk_domain.clock                          1000                       # Clock period in ticks
system.tsunami.fake_uart1.pwrStateResidencyTicks::UNDEFINED 2541872705500                       # Cumulative time (in ticks) in various power states
system.tsunami.fake_uart2.pwrStateResidencyTicks::UNDEFINED 2541872705500                       # Cumulative time (in ticks) in various power states
system.tsunami.fake_uart3.pwrStateResidencyTicks::UNDEFINED 2541872705500                       # Cumulative time (in ticks) in various power states
system.tsunami.fake_uart4.pwrStateResidencyTicks::UNDEFINED 2541872705500                       # Cumulative time (in ticks) in various power states
system.tsunami.fake_ppc.pwrStateResidencyTicks::UNDEFINED 2541872705500                       # Cumulative time (in ticks) in various power states
system.tsunami.cchip.pwrStateResidencyTicks::UNDEFINED 2541872705500                       # Cumulative time (in ticks) in various power states
system.tsunami.io.pwrStateResidencyTicks::UNDEFINED 2541872705500                       # Cumulative time (in ticks) in various power states
system.tsunami.pchip.pwrStateResidencyTicks::UNDEFINED 2541872705500                       # Cumulative time (in ticks) in various power states
system.tsunami.fake_ata1.pwrStateResidencyTicks::UNDEFINED 2541872705500                       # Cumulative time (in ticks) in various power states
system.tsunami.fake_ata0.pwrStateResidencyTicks::UNDEFINED 2541872705500                       # Cumulative time (in ticks) in various power states
system.tsunami.backdoor.pwrStateResidencyTicks::UNDEFINED 2541872705500                       # Cumulative time (in ticks) in various power states
system.tsunami.fake_pnp_read3.pwrStateResidencyTicks::UNDEFINED 2541872705500                       # Cumulative time (in ticks) in various power states
system.tsunami.fake_pnp_read2.pwrStateResidencyTicks::UNDEFINED 2541872705500                       # Cumulative time (in ticks) in various power states
system.tsunami.fake_pnp_read1.pwrStateResidencyTicks::UNDEFINED 2541872705500                       # Cumulative time (in ticks) in various power states
system.tsunami.fake_pnp_read0.pwrStateResidencyTicks::UNDEFINED 2541872705500                       # Cumulative time (in ticks) in various power states
system.tsunami.fake_pnp_read7.pwrStateResidencyTicks::UNDEFINED 2541872705500                       # Cumulative time (in ticks) in various power states
system.tsunami.fake_pnp_read6.pwrStateResidencyTicks::UNDEFINED 2541872705500                       # Cumulative time (in ticks) in various power states
system.tsunami.fake_pnp_read5.pwrStateResidencyTicks::UNDEFINED 2541872705500                       # Cumulative time (in ticks) in various power states
system.tsunami.fake_pnp_read4.pwrStateResidencyTicks::UNDEFINED 2541872705500                       # Cumulative time (in ticks) in various power states
system.tsunami.fake_pnp_write.pwrStateResidencyTicks::UNDEFINED 2541872705500                       # Cumulative time (in ticks) in various power states
system.tsunami.fb.pwrStateResidencyTicks::UNDEFINED 2541872705500                       # Cumulative time (in ticks) in various power states
system.tsunami.fake_pnp_addr.pwrStateResidencyTicks::UNDEFINED 2541872705500                       # Cumulative time (in ticks) in various power states
system.tsunami.fake_OROM.pwrStateResidencyTicks::UNDEFINED 2541872705500                       # Cumulative time (in ticks) in various power states
system.tsunami.uart.pwrStateResidencyTicks::UNDEFINED 2541872705500                       # Cumulative time (in ticks) in various power states
system.tsunami.fake_sm_chip.pwrStateResidencyTicks::UNDEFINED 2541872705500                       # Cumulative time (in ticks) in various power states
system.tsunami.ethernet.pwrStateResidencyTicks::UNDEFINED 2541872705500                       # Cumulative time (in ticks) in various power states
system.tsunami.ide.pwrStateResidencyTicks::UNDEFINED 2541872705500                       # Cumulative time (in ticks) in various power states
system.cpu_voltage_domain.voltage                   1                       # Voltage in Volts
system.mem_ctrls.pwrStateResidencyTicks::UNDEFINED 2541872705500                       # Cumulative time (in ticks) in various power states
system.mem_ctrls.bytes_read::.cpu.inst        5575360                       # Number of bytes read from this memory
system.mem_ctrls.bytes_read::.cpu.data        4468928                       # Number of bytes read from this memory
system.mem_ctrls.bytes_read::total           10044288                       # Number of bytes read from this memory
system.mem_ctrls.bytes_inst_read::.cpu.inst      5575360                       # Number of instructions bytes read from this memory
system.mem_ctrls.bytes_inst_read::total       5575360                       # Number of instructions bytes read from this memory
system.mem_ctrls.bytes_written::.writebacks      2228672                       # Number of bytes written to this memory
system.mem_ctrls.bytes_written::total         2228672                       # Number of bytes written to this memory
system.mem_ctrls.num_reads::.cpu.inst           87115                       # Number of read requests responded to by this memory
system.mem_ctrls.num_reads::.cpu.data           69827                       # Number of read requests responded to by this memory
system.mem_ctrls.num_reads::total              156942                       # Number of read requests responded to by this memory
system.mem_ctrls.num_writes::.writebacks        34823                       # Number of write requests responded to by this memory
system.mem_ctrls.num_writes::total              34823                       # Number of write requests responded to by this memory
system.mem_ctrls.bw_read::.cpu.inst         469984453                       # Total read bandwidth from this memory (bytes/s)
system.mem_ctrls.bw_read::.cpu.data         376715886                       # Total read bandwidth from this memory (bytes/s)
system.mem_ctrls.bw_read::total             846700338                       # Total read bandwidth from this memory (bytes/s)
system.mem_ctrls.bw_inst_read::.cpu.inst    469984453                       # Instruction read bandwidth from this memory (bytes/s)
system.mem_ctrls.bw_inst_read::total        469984453                       # Instruction read bandwidth from this memory (bytes/s)
system.mem_ctrls.bw_write::.writebacks      187869696                       # Write bandwidth from this memory (bytes/s)
system.mem_ctrls.bw_write::total            187869696                       # Write bandwidth from this memory (bytes/s)
system.mem_ctrls.bw_total::.writebacks      187869696                       # Total bandwidth to/from this memory (bytes/s)
system.mem_ctrls.bw_total::.cpu.inst        469984453                       # Total bandwidth to/from this memory (bytes/s)
system.mem_ctrls.bw_total::.cpu.data        376715886                       # Total bandwidth to/from this memory (bytes/s)
system.mem_ctrls.bw_total::total           1034570035                       # Total bandwidth to/from this memory (bytes/s)
system.mem_ctrls.avgPriority_.writebacks::samples    118946.00                       # Average QoS priority value for accepted requests
system.mem_ctrls.avgPriority_.cpu.inst::samples     77293.00                       # Average QoS priority value for accepted requests
system.mem_ctrls.avgPriority_.cpu.data::samples     69311.00                       # Average QoS priority value for accepted requests
system.mem_ctrls.priorityMinLatency      0.000000018750                       # per QoS priority minimum request to response latency (s)
system.mem_ctrls.priorityMaxLatency      0.000209462750                       # per QoS priority maximum request to response latency (s)
system.mem_ctrls.numReadWriteTurnArounds         7325                       # Number of turnarounds from READ to WRITE
system.mem_ctrls.numWriteReadTurnArounds         7325                       # Number of turnarounds from WRITE to READ
system.mem_ctrls.numStayReadState              406677                       # Number of times bus staying in READ state
system.mem_ctrls.numStayWriteState             111682                       # Number of times bus staying in WRITE state
system.mem_ctrls.readReqs                      156942                       # Number of read requests accepted
system.mem_ctrls.writeReqs                     121191                       # Number of write requests accepted
system.mem_ctrls.readBursts                    156942                       # Number of DRAM read bursts, including those serviced by the write queue
system.mem_ctrls.writeBursts                   121191                       # Number of DRAM write bursts, including those merged in the write queue
system.mem_ctrls.servicedByWrQ                  10338                       # Number of DRAM read bursts serviced by the write queue
system.mem_ctrls.mergedWrBursts                  2245                       # Number of DRAM write bursts merged with an existing one
system.mem_ctrls.neitherReadNorWriteReqs            0                       # Number of requests that are neither read nor write
system.mem_ctrls.perBankRdBursts::0              8740                       # Per bank write bursts
system.mem_ctrls.perBankRdBursts::1              6718                       # Per bank write bursts
system.mem_ctrls.perBankRdBursts::2              9910                       # Per bank write bursts
system.mem_ctrls.perBankRdBursts::3              7166                       # Per bank write bursts
system.mem_ctrls.perBankRdBursts::4              8542                       # Per bank write bursts
system.mem_ctrls.perBankRdBursts::5             10031                       # Per bank write bursts
system.mem_ctrls.perBankRdBursts::6              8564                       # Per bank write bursts
system.mem_ctrls.perBankRdBursts::7              8668                       # Per bank write bursts
system.mem_ctrls.perBankRdBursts::8             11785                       # Per bank write bursts
system.mem_ctrls.perBankRdBursts::9              9182                       # Per bank write bursts
system.mem_ctrls.perBankRdBursts::10            10635                       # Per bank write bursts
system.mem_ctrls.perBankRdBursts::11            11967                       # Per bank write bursts
system.mem_ctrls.perBankRdBursts::12             8868                       # Per bank write bursts
system.mem_ctrls.perBankRdBursts::13            13513                       # Per bank write bursts
system.mem_ctrls.perBankRdBursts::14             5508                       # Per bank write bursts
system.mem_ctrls.perBankRdBursts::15             6807                       # Per bank write bursts
system.mem_ctrls.perBankWrBursts::0              7046                       # Per bank write bursts
system.mem_ctrls.perBankWrBursts::1              4524                       # Per bank write bursts
system.mem_ctrls.perBankWrBursts::2              8586                       # Per bank write bursts
system.mem_ctrls.perBankWrBursts::3              7946                       # Per bank write bursts
system.mem_ctrls.perBankWrBursts::4              7669                       # Per bank write bursts
system.mem_ctrls.perBankWrBursts::5              9822                       # Per bank write bursts
system.mem_ctrls.perBankWrBursts::6              7343                       # Per bank write bursts
system.mem_ctrls.perBankWrBursts::7              6870                       # Per bank write bursts
system.mem_ctrls.perBankWrBursts::8             10530                       # Per bank write bursts
system.mem_ctrls.perBankWrBursts::9              8393                       # Per bank write bursts
system.mem_ctrls.perBankWrBursts::10             7911                       # Per bank write bursts
system.mem_ctrls.perBankWrBursts::11             8047                       # Per bank write bursts
system.mem_ctrls.perBankWrBursts::12             5444                       # Per bank write bursts
system.mem_ctrls.perBankWrBursts::13             9935                       # Per bank write bursts
system.mem_ctrls.perBankWrBursts::14             3158                       # Per bank write bursts
system.mem_ctrls.perBankWrBursts::15             5703                       # Per bank write bursts
system.mem_ctrls.avgRdQLen                       1.09                       # Average read queue length when enqueuing
system.mem_ctrls.avgWrQLen                      25.73                       # Average write queue length when enqueuing
system.mem_ctrls.totQLat                   2003185750                       # Total ticks spent queuing
system.mem_ctrls.totBusLat                  733020000                       # Total ticks spent in databus transfers
system.mem_ctrls.totMemAccLat              4752010750                       # Total ticks spent from burst creation until serviced by the DRAM
system.mem_ctrls.avgQLat                     13663.92                       # Average queueing delay per DRAM burst
system.mem_ctrls.avgBusLat                    5000.00                       # Average bus latency per DRAM burst
system.mem_ctrls.avgMemAccLat                32413.92                       # Average memory access latency per DRAM burst
system.mem_ctrls.numRdRetry                         0                       # Number of times read queue was full causing retry
system.mem_ctrls.numWrRetry                         0                       # Number of times write queue was full causing retry
system.mem_ctrls.readRowHits                   103875                       # Number of row buffer hits during reads
system.mem_ctrls.writeRowHits                   80189                       # Number of row buffer hits during writes
system.mem_ctrls.readRowHitRate                 70.85                       # Row buffer hit rate for reads
system.mem_ctrls.writeRowHitRate                67.42                       # Row buffer hit rate for writes
system.mem_ctrls.readPktSize::0                     0                       # Read request sizes (log2)
system.mem_ctrls.readPktSize::1                     0                       # Read request sizes (log2)
system.mem_ctrls.readPktSize::2                     0                       # Read request sizes (log2)
system.mem_ctrls.readPktSize::3                     0                       # Read request sizes (log2)
system.mem_ctrls.readPktSize::4                     0                       # Read request sizes (log2)
system.mem_ctrls.readPktSize::5                     0                       # Read request sizes (log2)
system.mem_ctrls.readPktSize::6                156942                       # Read request sizes (log2)
system.mem_ctrls.writePktSize::0                    0                       # Write request sizes (log2)
system.mem_ctrls.writePktSize::1                    0                       # Write request sizes (log2)
system.mem_ctrls.writePktSize::2                    0                       # Write request sizes (log2)
system.mem_ctrls.writePktSize::3                    0                       # Write request sizes (log2)
system.mem_ctrls.writePktSize::4                    0                       # Write request sizes (log2)
system.mem_ctrls.writePktSize::5                    0                       # Write request sizes (log2)
system.mem_ctrls.writePktSize::6               121191                       # Write request sizes (log2)
system.mem_ctrls.rdQLenPdf::0                  134138                       # What read queue length does an incoming req see
system.mem_ctrls.rdQLenPdf::1                   12150                       # What read queue length does an incoming req see
system.mem_ctrls.rdQLenPdf::2                     316                       # What read queue length does an incoming req see
system.mem_ctrls.rdQLenPdf::3                       0                       # What read queue length does an incoming req see
system.mem_ctrls.rdQLenPdf::4                       0                       # What read queue length does an incoming req see
system.mem_ctrls.rdQLenPdf::5                       0                       # What read queue length does an incoming req see
system.mem_ctrls.rdQLenPdf::6                       0                       # What read queue length does an incoming req see
system.mem_ctrls.rdQLenPdf::7                       0                       # What read queue length does an incoming req see
system.mem_ctrls.rdQLenPdf::8                       0                       # What read queue length does an incoming req see
system.mem_ctrls.rdQLenPdf::9                       0                       # What read queue length does an incoming req see
system.mem_ctrls.rdQLenPdf::10                      0                       # What read queue length does an incoming req see
system.mem_ctrls.rdQLenPdf::11                      0                       # What read queue length does an incoming req see
system.mem_ctrls.rdQLenPdf::12                      0                       # What read queue length does an incoming req see
system.mem_ctrls.rdQLenPdf::13                      0                       # What read queue length does an incoming req see
system.mem_ctrls.rdQLenPdf::14                      0                       # What read queue length does an incoming req see
system.mem_ctrls.rdQLenPdf::15                      0                       # What read queue length does an incoming req see
system.mem_ctrls.rdQLenPdf::16                      0                       # What read queue length does an incoming req see
system.mem_ctrls.rdQLenPdf::17                      0                       # What read queue length does an incoming req see
system.mem_ctrls.rdQLenPdf::18                      0                       # What read queue length does an incoming req see
system.mem_ctrls.rdQLenPdf::19                      0                       # What read queue length does an incoming req see
system.mem_ctrls.rdQLenPdf::20                      0                       # What read queue length does an incoming req see
system.mem_ctrls.rdQLenPdf::21                      0                       # What read queue length does an incoming req see
system.mem_ctrls.rdQLenPdf::22                      0                       # What read queue length does an incoming req see
system.mem_ctrls.rdQLenPdf::23                      0                       # What read queue length does an incoming req see
system.mem_ctrls.rdQLenPdf::24                      0                       # What read queue length does an incoming req see
system.mem_ctrls.rdQLenPdf::25                      0                       # What read queue length does an incoming req see
system.mem_ctrls.rdQLenPdf::26                      0                       # What read queue length does an incoming req see
system.mem_ctrls.rdQLenPdf::27                      0                       # What read queue length does an incoming req see
system.mem_ctrls.rdQLenPdf::28                      0                       # What read queue length does an incoming req see
system.mem_ctrls.rdQLenPdf::29                      0                       # What read queue length does an incoming req see
system.mem_ctrls.rdQLenPdf::30                      0                       # What read queue length does an incoming req see
system.mem_ctrls.rdQLenPdf::31                      0                       # What read queue length does an incoming req see
system.mem_ctrls.wrQLenPdf::0                       1                       # What write queue length does an incoming req see
system.mem_ctrls.wrQLenPdf::1                       1                       # What write queue length does an incoming req see
system.mem_ctrls.wrQLenPdf::2                       1                       # What write queue length does an incoming req see
system.mem_ctrls.wrQLenPdf::3                       1                       # What write queue length does an incoming req see
system.mem_ctrls.wrQLenPdf::4                       1                       # What write queue length does an incoming req see
system.mem_ctrls.wrQLenPdf::5                       1                       # What write queue length does an incoming req see
system.mem_ctrls.wrQLenPdf::6                       1                       # What write queue length does an incoming req see
system.mem_ctrls.wrQLenPdf::7                       1                       # What write queue length does an incoming req see
system.mem_ctrls.wrQLenPdf::8                       1                       # What write queue length does an incoming req see
system.mem_ctrls.wrQLenPdf::9                       1                       # What write queue length does an incoming req see
system.mem_ctrls.wrQLenPdf::10                      1                       # What write queue length does an incoming req see
system.mem_ctrls.wrQLenPdf::11                      1                       # What write queue length does an incoming req see
system.mem_ctrls.wrQLenPdf::12                      1                       # What write queue length does an incoming req see
system.mem_ctrls.wrQLenPdf::13                      1                       # What write queue length does an incoming req see
system.mem_ctrls.wrQLenPdf::14                      1                       # What write queue length does an incoming req see
system.mem_ctrls.wrQLenPdf::15                    656                       # What write queue length does an incoming req see
system.mem_ctrls.wrQLenPdf::16                    739                       # What write queue length does an incoming req see
system.mem_ctrls.wrQLenPdf::17                   6692                       # What write queue length does an incoming req see
system.mem_ctrls.wrQLenPdf::18                   7337                       # What write queue length does an incoming req see
system.mem_ctrls.wrQLenPdf::19                   7441                       # What write queue length does an incoming req see
system.mem_ctrls.wrQLenPdf::20                   7405                       # What write queue length does an incoming req see
system.mem_ctrls.wrQLenPdf::21                   7397                       # What write queue length does an incoming req see
system.mem_ctrls.wrQLenPdf::22                   7504                       # What write queue length does an incoming req see
system.mem_ctrls.wrQLenPdf::23                   7411                       # What write queue length does an incoming req see
system.mem_ctrls.wrQLenPdf::24                   7413                       # What write queue length does an incoming req see
system.mem_ctrls.wrQLenPdf::25                   7387                       # What write queue length does an incoming req see
system.mem_ctrls.wrQLenPdf::26                   7424                       # What write queue length does an incoming req see
system.mem_ctrls.wrQLenPdf::27                   7377                       # What write queue length does an incoming req see
system.mem_ctrls.wrQLenPdf::28                   7366                       # What write queue length does an incoming req see
system.mem_ctrls.wrQLenPdf::29                   7363                       # What write queue length does an incoming req see
system.mem_ctrls.wrQLenPdf::30                   7338                       # What write queue length does an incoming req see
system.mem_ctrls.wrQLenPdf::31                   7329                       # What write queue length does an incoming req see
system.mem_ctrls.wrQLenPdf::32                   7335                       # What write queue length does an incoming req see
system.mem_ctrls.wrQLenPdf::33                     13                       # What write queue length does an incoming req see
system.mem_ctrls.wrQLenPdf::34                      4                       # What write queue length does an incoming req see
system.mem_ctrls.wrQLenPdf::35                      0                       # What write queue length does an incoming req see
system.mem_ctrls.wrQLenPdf::36                      0                       # What write queue length does an incoming req see
system.mem_ctrls.wrQLenPdf::37                      0                       # What write queue length does an incoming req see
system.mem_ctrls.wrQLenPdf::38                      0                       # What write queue length does an incoming req see
system.mem_ctrls.wrQLenPdf::39                      0                       # What write queue length does an incoming req see
system.mem_ctrls.wrQLenPdf::40                      0                       # What write queue length does an incoming req see
system.mem_ctrls.wrQLenPdf::41                      0                       # What write queue length does an incoming req see
system.mem_ctrls.wrQLenPdf::42                      0                       # What write queue length does an incoming req see
system.mem_ctrls.wrQLenPdf::43                      0                       # What write queue length does an incoming req see
system.mem_ctrls.wrQLenPdf::44                      0                       # What write queue length does an incoming req see
system.mem_ctrls.wrQLenPdf::45                      0                       # What write queue length does an incoming req see
system.mem_ctrls.wrQLenPdf::46                      0                       # What write queue length does an incoming req see
system.mem_ctrls.wrQLenPdf::47                      0                       # What write queue length does an incoming req see
system.mem_ctrls.wrQLenPdf::48                      0                       # What write queue length does an incoming req see
system.mem_ctrls.wrQLenPdf::49                      0                       # What write queue length does an incoming req see
system.mem_ctrls.wrQLenPdf::50                      0                       # What write queue length does an incoming req see
system.mem_ctrls.wrQLenPdf::51                      0                       # What write queue length does an incoming req see
system.mem_ctrls.wrQLenPdf::52                      0                       # What write queue length does an incoming req see
system.mem_ctrls.wrQLenPdf::53                      0                       # What write queue length does an incoming req see
system.mem_ctrls.wrQLenPdf::54                      0                       # What write queue length does an incoming req see
system.mem_ctrls.wrQLenPdf::55                      0                       # What write queue length does an incoming req see
system.mem_ctrls.wrQLenPdf::56                      0                       # What write queue length does an incoming req see
system.mem_ctrls.wrQLenPdf::57                      0                       # What write queue length does an incoming req see
system.mem_ctrls.wrQLenPdf::58                      0                       # What write queue length does an incoming req see
system.mem_ctrls.wrQLenPdf::59                      0                       # What write queue length does an incoming req see
system.mem_ctrls.wrQLenPdf::60                      0                       # What write queue length does an incoming req see
system.mem_ctrls.wrQLenPdf::61                      0                       # What write queue length does an incoming req see
system.mem_ctrls.wrQLenPdf::62                      0                       # What write queue length does an incoming req see
system.mem_ctrls.wrQLenPdf::63                      0                       # What write queue length does an incoming req see
system.mem_ctrls.bytesPerActivate::samples        81455                       # Bytes accessed per row activation
system.mem_ctrls.bytesPerActivate::mean    208.603622                       # Bytes accessed per row activation
system.mem_ctrls.bytesPerActivate::gmean   140.347736                       # Bytes accessed per row activation
system.mem_ctrls.bytesPerActivate::stdev   225.183779                       # Bytes accessed per row activation
system.mem_ctrls.bytesPerActivate::0-127        34382     42.21%     42.21% # Bytes accessed per row activation
system.mem_ctrls.bytesPerActivate::128-255        24354     29.90%     72.11% # Bytes accessed per row activation
system.mem_ctrls.bytesPerActivate::256-383        10000     12.28%     84.39% # Bytes accessed per row activation
system.mem_ctrls.bytesPerActivate::384-511         4674      5.74%     90.12% # Bytes accessed per row activation
system.mem_ctrls.bytesPerActivate::512-639         2294      2.82%     92.94% # Bytes accessed per row activation
system.mem_ctrls.bytesPerActivate::640-767         1384      1.70%     94.64% # Bytes accessed per row activation
system.mem_ctrls.bytesPerActivate::768-895          945      1.16%     95.80% # Bytes accessed per row activation
system.mem_ctrls.bytesPerActivate::896-1023          607      0.75%     96.54% # Bytes accessed per row activation
system.mem_ctrls.bytesPerActivate::1024-1151         2815      3.46%    100.00% # Bytes accessed per row activation
system.mem_ctrls.bytesPerActivate::total        81455                       # Bytes accessed per row activation
system.mem_ctrls.rdPerTurnAround::samples         7325                       # Reads before turning the bus around for writes
system.mem_ctrls.rdPerTurnAround::mean      20.014061                       # Reads before turning the bus around for writes
system.mem_ctrls.rdPerTurnAround::gmean     18.395074                       # Reads before turning the bus around for writes
system.mem_ctrls.rdPerTurnAround::stdev     12.709745                       # Reads before turning the bus around for writes
system.mem_ctrls.rdPerTurnAround::0-15           1311     17.90%     17.90% # Reads before turning the bus around for writes
system.mem_ctrls.rdPerTurnAround::16-31          5536     75.58%     93.47% # Reads before turning the bus around for writes
system.mem_ctrls.rdPerTurnAround::32-47           277      3.78%     97.26% # Reads before turning the bus around for writes
system.mem_ctrls.rdPerTurnAround::48-63            98      1.34%     98.59% # Reads before turning the bus around for writes
system.mem_ctrls.rdPerTurnAround::64-79            47      0.64%     99.24% # Reads before turning the bus around for writes
system.mem_ctrls.rdPerTurnAround::80-95            21      0.29%     99.52% # Reads before turning the bus around for writes
system.mem_ctrls.rdPerTurnAround::96-111            7      0.10%     99.62% # Reads before turning the bus around for writes
system.mem_ctrls.rdPerTurnAround::112-127           10      0.14%     99.75% # Reads before turning the bus around for writes
system.mem_ctrls.rdPerTurnAround::128-143           10      0.14%     99.89% # Reads before turning the bus around for writes
system.mem_ctrls.rdPerTurnAround::144-159            3      0.04%     99.93% # Reads before turning the bus around for writes
system.mem_ctrls.rdPerTurnAround::160-175            2      0.03%     99.96% # Reads before turning the bus around for writes
system.mem_ctrls.rdPerTurnAround::192-207            1      0.01%     99.97% # Reads before turning the bus around for writes
system.mem_ctrls.rdPerTurnAround::256-271            1      0.01%     99.99% # Reads before turning the bus around for writes
system.mem_ctrls.rdPerTurnAround::400-415            1      0.01%    100.00% # Reads before turning the bus around for writes
system.mem_ctrls.rdPerTurnAround::total          7325                       # Reads before turning the bus around for writes
system.mem_ctrls.wrPerTurnAround::samples         7325                       # Writes before turning the bus around for reads
system.mem_ctrls.wrPerTurnAround::mean      16.235768                       # Writes before turning the bus around for reads
system.mem_ctrls.wrPerTurnAround::gmean     16.220867                       # Writes before turning the bus around for reads
system.mem_ctrls.wrPerTurnAround::stdev      0.726707                       # Writes before turning the bus around for reads
system.mem_ctrls.wrPerTurnAround::16             6549     89.41%     89.41% # Writes before turning the bus around for reads
system.mem_ctrls.wrPerTurnAround::17               87      1.19%     90.59% # Writes before turning the bus around for reads
system.mem_ctrls.wrPerTurnAround::18              484      6.61%     97.20% # Writes before turning the bus around for reads
system.mem_ctrls.wrPerTurnAround::19              152      2.08%     99.28% # Writes before turning the bus around for reads
system.mem_ctrls.wrPerTurnAround::20               49      0.67%     99.95% # Writes before turning the bus around for reads
system.mem_ctrls.wrPerTurnAround::21                4      0.05%    100.00% # Writes before turning the bus around for reads
system.mem_ctrls.wrPerTurnAround::total          7325                       # Writes before turning the bus around for reads
system.mem_ctrls.bytesReadDRAM                9382656                       # Total number of bytes read from DRAM
system.mem_ctrls.bytesReadWrQ                  661632                       # Total number of bytes read from write queue
system.mem_ctrls.bytesWritten                 7611328                       # Total number of bytes written to DRAM
system.mem_ctrls.bytesReadSys                10044288                       # Total read bytes from the system interface side
system.mem_ctrls.bytesWrittenSys              7756224                       # Total written bytes from the system interface side
system.mem_ctrls.avgRdBW                       790.93                       # Average DRAM read bandwidth in MiByte/s
system.mem_ctrls.avgWrBW                       641.61                       # Average achieved write bandwidth in MiByte/s
system.mem_ctrls.avgRdBWSys                    846.70                       # Average system read bandwidth in MiByte/s
system.mem_ctrls.avgWrBWSys                    653.82                       # Average system write bandwidth in MiByte/s
system.mem_ctrls.peakBW                      12800.00                       # Theoretical peak bandwidth in MiByte/s
system.mem_ctrls.busUtil                        11.19                       # Data bus utilization in percentage
system.mem_ctrls.busUtilRead                     6.18                       # Data bus utilization in percentage for reads
system.mem_ctrls.busUtilWrite                    5.01                       # Data bus utilization in percentage for writes
system.mem_ctrls.totGap                   11862855500                       # Total gap between requests
system.mem_ctrls.avgGap                      42651.74                       # Average gap between requests
system.mem_ctrls.masterReadBytes::.cpu.inst      4946752                       # Per-master bytes read from memory
system.mem_ctrls.masterReadBytes::.cpu.data      4435904                       # Per-master bytes read from memory
system.mem_ctrls.masterWriteBytes::.writebacks      7611328                       # Per-master bytes write to memory
system.mem_ctrls.masterReadRate::.cpu.inst 416994872.358146667480                       # Per-master bytes read from memory rate (Bytes/sec)
system.mem_ctrls.masterReadRate::.cpu.data 373932071.442633926868                       # Per-master bytes read from memory rate (Bytes/sec)
[...]
system.cpu.icache.ReadReq_mshr_misses::total       442308                       # number of ReadReq MSHR misses
system.cpu.icache.ReadReq_mshr_miss_latency::.cpu.inst  26135553500                       # number of ReadReq MSHR miss cycles
system.cpu.icache.ReadReq_mshr_miss_latency::total  26135553500                       # number of ReadReq MSHR miss cycles
system.cpu.icache.ReadReq_mshr_miss_rate::.cpu.inst     0.004391                       # mshr miss rate for ReadReq accesses
system.cpu.icache.ReadReq_mshr_miss_rate::total     0.004391                       # mshr miss rate for ReadReq accesses
system.cpu.icache.ReadReq_avg_mshr_miss_latency::.cpu.inst 59089.036373                       # average ReadReq mshr miss latency
system.cpu.icache.ReadReq_avg_mshr_miss_latency::total 59089.036373                       # average ReadReq mshr miss latency
system.cpu.icache.tags.pwrStateResidencyTicks::UNDEFINED 347060860000                       # Cumulative time (in ticks) in various power states
system.cpu.icache.tags.tagsinuse                  512                       # Cycle average of tags in use
system.cpu.icache.tags.total_refs           100937862                       # Total number of references to valid blocks.
system.cpu.icache.tags.sampled_refs            442821                       # Sample count of references to valid blocks.
system.cpu.icache.tags.avg_refs            227.942808                       # Average number of references to valid blocks.
system.cpu.icache.tags.warmup_cycle                 0                       # Cycle when the warmup percentage was hit.
system.cpu.icache.tags.occ_blocks::.cpu.inst          512                       # Average occupied blocks per requestor
system.cpu.icache.tags.occ_percent::.cpu.inst            1                       # Average percentage of cache occupancy
system.cpu.icache.tags.occ_percent::total            1                       # Average percentage of cache occupancy
system.cpu.icache.tags.occ_task_id_blocks::1024          512                       # Occupied blocks per task id
system.cpu.icache.tags.age_task_id_blocks_1024::2          329                       # Occupied blocks per task id
system.cpu.icache.tags.age_task_id_blocks_1024::3          142                       # Occupied blocks per task id
system.cpu.icache.tags.age_task_id_blocks_1024::4           41                       # Occupied blocks per task id
system.cpu.icache.tags.occ_task_id_percent::1024            1                       # Percentage of cache occupancy per task id
system.cpu.icache.tags.tag_accesses         201884727                       # Number of tag accesses
system.cpu.icache.tags.data_accesses        201884727                       # Number of data accesses
system.cpu.dcache.pwrStateResidencyTicks::UNDEFINED 347060860000                       # Cumulative time (in ticks) in various power states
system.cpu.dcache.demand_hits::.cpu.data    124507546                       # number of demand (read+write) hits
system.cpu.dcache.demand_hits::total        124507546                       # number of demand (read+write) hits
system.cpu.dcache.overall_hits::.cpu.data    124507546                       # number of overall hits
system.cpu.dcache.overall_hits::total       124507546                       # number of overall hits
system.cpu.dcache.demand_misses::.cpu.data      1701499                       # number of demand (read+write) misses
system.cpu.dcache.demand_misses::total        1701499                       # number of demand (read+write) misses
system.cpu.dcache.overall_misses::.cpu.data      1701499                       # number of overall misses
system.cpu.dcache.overall_misses::total       1701499                       # number of overall misses
system.cpu.dcache.demand_miss_latency::.cpu.data 104389866000                       # number of demand (read+write) miss cycles
system.cpu.dcache.demand_miss_latency::total 104389866000                       # number of demand (read+write) miss cycles
system.cpu.dcache.overall_miss_latency::.cpu.data 104389866000                       # number of overall miss cycles
system.cpu.dcache.overall_miss_latency::total 104389866000                       # number of overall miss cycles
system.cpu.dcache.demand_accesses::.cpu.data    126209045                       # number of demand (read+write) accesses
system.cpu.dcache.demand_accesses::total    126209045                       # number of demand (read+write) accesses
system.cpu.dcache.overall_accesses::.cpu.data    126209045                       # number of overall (read+write) accesses
system.cpu.dcache.overall_accesses::total    126209045                       # number of overall (read+write) accesses
system.cpu.dcache.demand_miss_rate::.cpu.data     0.013482                       # miss rate for demand accesses
system.cpu.dcache.demand_miss_rate::total     0.013482                       # miss rate for demand accesses
system.cpu.dcache.overall_miss_rate::.cpu.data     0.013482                       # miss rate for overall accesses
system.cpu.dcache.overall_miss_rate::total     0.013482                       # miss rate for overall accesses
system.cpu.dcache.demand_avg_miss_latency::.cpu.data 61351.705761                       # average overall miss latency
system.cpu.dcache.demand_avg_miss_latency::total 61351.705761                       # average overall miss latency
system.cpu.dcache.overall_avg_miss_latency::.cpu.data 61351.705761                       # average overall miss latency
system.cpu.dcache.overall_avg_miss_latency::total 61351.705761                       # average overall miss latency
system.cpu.dcache.blocked_cycles::no_mshrs            0                       # number of cycles access was blocked
system.cpu.dcache.blocked_cycles::no_targets            0                       # number of cycles access was blocked
system.cpu.dcache.blocked::no_mshrs                 0                       # number of cycles access was blocked
system.cpu.dcache.blocked::no_targets               0                       # number of cycles access was blocked
system.cpu.dcache.avg_blocked_cycles::no_mshrs          nan                       # average number of cycles each access was blocked
system.cpu.dcache.avg_blocked_cycles::no_targets          nan                       # average number of cycles each access was blocked
system.cpu.dcache.writebacks::.writebacks       733660                       # number of writebacks
system.cpu.dcache.writebacks::total            733660                       # number of writebacks
system.cpu.dcache.demand_mshr_hits::.cpu.data       534818                       # number of demand (read+write) MSHR hits
system.cpu.dcache.demand_mshr_hits::total       534818                       # number of demand (read+write) MSHR hits
system.cpu.dcache.overall_mshr_hits::.cpu.data       534818                       # number of overall MSHR hits
system.cpu.dcache.overall_mshr_hits::total       534818                       # number of overall MSHR hits
system.cpu.dcache.demand_mshr_misses::.cpu.data      1166681                       # number of demand (read+write) MSHR misses
system.cpu.dcache.demand_mshr_misses::total      1166681                       # number of demand (read+write) MSHR misses
system.cpu.dcache.overall_mshr_misses::.cpu.data      1166681                       # number of overall MSHR misses
system.cpu.dcache.overall_mshr_misses::total      1166681                       # number of overall MSHR misses
system.cpu.dcache.overall_mshr_uncacheable_misses::.cpu.data          355                       # number of overall MSHR uncacheable misses
system.cpu.dcache.overall_mshr_uncacheable_misses::total          355                       # number of overall MSHR uncacheable misses
system.cpu.dcache.demand_mshr_miss_latency::.cpu.data  70176166500                       # number of demand (read+write) MSHR miss cycles
system.cpu.dcache.demand_mshr_miss_latency::total  70176166500                       # number of demand (read+write) MSHR miss cycles
system.cpu.dcache.overall_mshr_miss_latency::.cpu.data  70176166500                       # number of overall MSHR miss cycles
system.cpu.dcache.overall_mshr_miss_latency::total  70176166500                       # number of overall MSHR miss cycles
system.cpu.dcache.demand_mshr_miss_rate::.cpu.data     0.009244                       # mshr miss rate for demand accesses
system.cpu.dcache.demand_mshr_miss_rate::total     0.009244                       # mshr miss rate for demand accesses
system.cpu.dcache.overall_mshr_miss_rate::.cpu.data     0.009244                       # mshr miss rate for overall accesses
system.cpu.dcache.overall_mshr_miss_rate::total     0.009244                       # mshr miss rate for overall accesses
system.cpu.dcache.demand_avg_mshr_miss_latency::.cpu.data 60150.260868                       # average overall mshr miss latency
system.cpu.dcache.demand_avg_mshr_miss_latency::total 60150.260868                       # average overall mshr miss latency
system.cpu.dcache.overall_avg_mshr_miss_latency::.cpu.data 60150.260868                       # average overall mshr miss latency
system.cpu.dcache.overall_avg_mshr_miss_latency::total 60150.260868                       # average overall mshr miss latency
system.cpu.dcache.replacements                1171335                       # number of replacements
system.cpu.dcache.ReadReq_hits::.cpu.data     97029776                       # number of ReadReq hits
system.cpu.dcache.ReadReq_hits::total        97029776                       # number of ReadReq hits
system.cpu.dcache.ReadReq_misses::.cpu.data       841257                       # number of ReadReq misses
system.cpu.dcache.ReadReq_misses::total        841257                       # number of ReadReq misses
system.cpu.dcache.ReadReq_miss_latency::.cpu.data  52180440000                       # number of ReadReq miss cycles
system.cpu.dcache.ReadReq_miss_latency::total  52180440000                       # number of ReadReq miss cycles
system.cpu.dcache.ReadReq_accesses::.cpu.data     97871033                       # number of ReadReq accesses(hits+misses)
system.cpu.dcache.ReadReq_accesses::total     97871033                       # number of ReadReq accesses(hits+misses)
system.cpu.dcache.ReadReq_miss_rate::.cpu.data     0.008596                       # miss rate for ReadReq accesses
system.cpu.dcache.ReadReq_miss_rate::total     0.008596                       # miss rate for ReadReq accesses
system.cpu.dcache.ReadReq_avg_miss_latency::.cpu.data 62026.752823                       # average ReadReq miss latency
system.cpu.dcache.ReadReq_avg_miss_latency::total 62026.752823                       # average ReadReq miss latency
system.cpu.dcache.ReadReq_mshr_hits::.cpu.data       112244                       # number of ReadReq MSHR hits
system.cpu.dcache.ReadReq_mshr_hits::total       112244                       # number of ReadReq MSHR hits
system.cpu.dcache.ReadReq_mshr_misses::.cpu.data       729013                       # number of ReadReq MSHR misses
system.cpu.dcache.ReadReq_mshr_misses::total       729013                       # number of ReadReq MSHR misses
system.cpu.dcache.ReadReq_mshr_miss_latency::.cpu.data  44596018500                       # number of ReadReq MSHR miss cycles
system.cpu.dcache.ReadReq_mshr_miss_latency::total  44596018500                       # number of ReadReq MSHR miss cycles
system.cpu.dcache.ReadReq_mshr_miss_rate::.cpu.data     0.007449                       # mshr miss rate for ReadReq accesses
system.cpu.dcache.ReadReq_mshr_miss_rate::total     0.007449                       # mshr miss rate for ReadReq accesses
system.cpu.dcache.ReadReq_avg_mshr_miss_latency::.cpu.data 61173.145746                       # average ReadReq mshr miss latency
system.cpu.dcache.ReadReq_avg_mshr_miss_latency::total 61173.145746                       # average ReadReq mshr miss latency
system.cpu.dcache.WriteReq_hits::.cpu.data     27477770                       # number of WriteReq hits
system.cpu.dcache.WriteReq_hits::total       27477770                       # number of WriteReq hits
system.cpu.dcache.WriteReq_misses::.cpu.data       860242                       # number of WriteReq misses
system.cpu.dcache.WriteReq_misses::total       860242                       # number of WriteReq misses
system.cpu.dcache.WriteReq_miss_latency::.cpu.data  52209426000                       # number of WriteReq miss cycles
system.cpu.dcache.WriteReq_miss_latency::total  52209426000                       # number of WriteReq miss cycles
system.cpu.dcache.WriteReq_accesses::.cpu.data     28338012                       # number of WriteReq accesses(hits+misses)
system.cpu.dcache.WriteReq_accesses::total     28338012                       # number of WriteReq accesses(hits+misses)
system.cpu.dcache.WriteReq_miss_rate::.cpu.data     0.030356                       # miss rate for WriteReq accesses
system.cpu.dcache.WriteReq_miss_rate::total     0.030356                       # miss rate for WriteReq accesses
system.cpu.dcache.WriteReq_avg_miss_latency::.cpu.data 60691.556562                       # average WriteReq miss latency
system.cpu.dcache.WriteReq_avg_miss_latency::total 60691.556562                       # average WriteReq miss latency
system.cpu.dcache.WriteReq_mshr_hits::.cpu.data       422574                       # number of WriteReq MSHR hits
system.cpu.dcache.WriteReq_mshr_hits::total       422574                       # number of WriteReq MSHR hits
system.cpu.dcache.WriteReq_mshr_misses::.cpu.data       437668                       # number of WriteReq MSHR misses
system.cpu.dcache.WriteReq_mshr_misses::total       437668                       # number of WriteReq MSHR misses
system.cpu.dcache.WriteReq_mshr_uncacheable::.cpu.data          355                       # number of WriteReq MSHR uncacheable
system.cpu.dcache.WriteReq_mshr_uncacheable::total          355                       # number of WriteReq MSHR uncacheable
system.cpu.dcache.WriteReq_mshr_miss_latency::.cpu.data  25580148000                       # number of WriteReq MSHR miss cycles
system.cpu.dcache.WriteReq_mshr_miss_latency::total  25580148000                       # number of WriteReq MSHR miss cycles
system.cpu.dcache.WriteReq_mshr_miss_rate::.cpu.data     0.015445                       # mshr miss rate for WriteReq accesses
system.cpu.dcache.WriteReq_mshr_miss_rate::total     0.015445                       # mshr miss rate for WriteReq accesses
system.cpu.dcache.WriteReq_avg_mshr_miss_latency::.cpu.data 58446.466271                       # average WriteReq mshr miss latency
system.cpu.dcache.WriteReq_avg_mshr_miss_latency::total 58446.466271                       # average WriteReq mshr miss latency
system.cpu.dcache.LoadLockedReq_hits::.cpu.data        73740                       # number of LoadLockedReq hits
system.cpu.dcache.LoadLockedReq_hits::total        73740                       # number of LoadLockedReq hits
system.cpu.dcache.LoadLockedReq_misses::.cpu.data         4654                       # number of LoadLockedReq misses
system.cpu.dcache.LoadLockedReq_misses::total         4654                       # number of LoadLockedReq misses
system.cpu.dcache.LoadLockedReq_miss_latency::.cpu.data    329973000                       # number of LoadLockedReq miss cycles
system.cpu.dcache.LoadLockedReq_miss_latency::total    329973000                       # number of LoadLockedReq miss cycles
system.cpu.dcache.LoadLockedReq_accesses::.cpu.data        78394                       # number of LoadLockedReq accesses(hits+misses)
system.cpu.dcache.LoadLockedReq_accesses::total        78394                       # number of LoadLockedReq accesses(hits+misses)
system.cpu.dcache.LoadLockedReq_miss_rate::.cpu.data     0.059367                       # miss rate for LoadLockedReq accesses
system.cpu.dcache.LoadLockedReq_miss_rate::total     0.059367                       # miss rate for LoadLockedReq accesses
system.cpu.dcache.LoadLockedReq_avg_miss_latency::.cpu.data 70900.945423                       # average LoadLockedReq miss latency
system.cpu.dcache.LoadLockedReq_avg_miss_latency::total 70900.945423                       # average LoadLockedReq miss latency
system.cpu.dcache.LoadLockedReq_mshr_misses::.cpu.data         4654                       # number of LoadLockedReq MSHR misses
system.cpu.dcache.LoadLockedReq_mshr_misses::total         4654                       # number of LoadLockedReq MSHR misses
system.cpu.dcache.LoadLockedReq_mshr_miss_latency::.cpu.data    325319000                       # number of LoadLockedReq MSHR miss cycles
system.cpu.dcache.LoadLockedReq_mshr_miss_latency::total    325319000                       # number of LoadLockedReq MSHR miss cycles
system.cpu.dcache.LoadLockedReq_mshr_miss_rate::.cpu.data     0.059367                       # mshr miss rate for LoadLockedReq accesses
system.cpu.dcache.LoadLockedReq_mshr_miss_rate::total     0.059367                       # mshr miss rate for LoadLockedReq accesses
system.cpu.dcache.LoadLockedReq_avg_mshr_miss_latency::.cpu.data 69900.945423                       # average LoadLockedReq mshr miss latency
system.cpu.dcache.LoadLockedReq_avg_mshr_miss_latency::total 69900.945423                       # average LoadLockedReq mshr miss latency
system.cpu.dcache.StoreCondReq_hits::.cpu.data        78345                       # number of StoreCondReq hits
system.cpu.dcache.StoreCondReq_hits::total        78345                       # number of StoreCondReq hits
system.cpu.dcache.StoreCondReq_accesses::.cpu.data        78345                       # number of StoreCondReq accesses(hits+misses)
system.cpu.dcache.StoreCondReq_accesses::total        78345                       # number of StoreCondReq accesses(hits+misses)
system.cpu.dcache.tags.pwrStateResidencyTicks::UNDEFINED 347060860000                       # Cumulative time (in ticks) in various power states
system.cpu.dcache.tags.tagsinuse                 1024                       # Cycle average of tags in use
system.cpu.dcache.tags.total_refs           126253213                       # Total number of references to valid blocks.
system.cpu.dcache.tags.sampled_refs           1172359                       # Sample count of references to valid blocks.
system.cpu.dcache.tags.avg_refs            107.691597                       # Average number of references to valid blocks.
system.cpu.dcache.tags.warmup_cycle                 0                       # Cycle when the warmup percentage was hit.
system.cpu.dcache.tags.occ_blocks::.cpu.data         1024                       # Average occupied blocks per requestor
system.cpu.dcache.tags.occ_percent::.cpu.data            1                       # Average percentage of cache occupancy
system.cpu.dcache.tags.occ_percent::total            1                       # Average percentage of cache occupancy
system.cpu.dcache.tags.occ_task_id_blocks::1024         1024                       # Occupied blocks per task id
system.cpu.dcache.tags.age_task_id_blocks_1024::0           11                       # Occupied blocks per task id
system.cpu.dcache.tags.age_task_id_blocks_1024::1           87                       # Occupied blocks per task id
system.cpu.dcache.tags.age_task_id_blocks_1024::2          772                       # Occupied blocks per task id
system.cpu.dcache.tags.age_task_id_blocks_1024::3          154                       # Occupied blocks per task id
system.cpu.dcache.tags.occ_task_id_percent::1024            1                       # Percentage of cache occupancy per task id
system.cpu.dcache.tags.tag_accesses         253902903                       # Number of tag accesses
system.cpu.dcache.tags.data_accesses        253902903                       # Number of data accesses

---------- End Simulation Statistics   ----------
