
---------- Begin Simulation Statistics ----------
final_tick                               2541835976500                       # Number of ticks from beginning of simulation (restored from checkpoints and never reset)
host_inst_rate                                 219202                       # Simulator instruction rate (inst/s)
host_mem_usage                                 741760                       # Number of bytes of host memory used
host_op_rate                                   219201                       # Simulator op (including micro ops) rate (op/s)
host_seconds                                    19.13                       # Real time elapsed on the host
host_tick_rate                              618271272                       # Simulator tick rate (ticks/s)
sim_freq                                 1000000000000                       # Frequency of simulated ticks
sim_insts                                     4192810                       # Number of instructions simulated
sim_ops                                       4192810                       # Number of ops (including micro ops) simulated
sim_seconds                                  0.011826                       # Number of seconds simulated
sim_ticks                                 11826131500                       # Number of ticks simulated
system.cpu.branchPred.BTBCorrect                    0                       # Number of correct BTB predictions (this stat may not work properly.
system.cpu.branchPred.BTBHitPct             44.691663                       # BTB Hit Percentage
system.cpu.branchPred.BTBHits                  378369                       # Number of BTB hits
system.cpu.branchPred.BTBLookups               846621                       # Number of BTB lookups
system.cpu.branchPred.RASInCorrect               2413                       # Number of incorrect RAS predictions.
system.cpu.branchPred.condIncorrect             75446                       # Number of conditional branches incorrect
system.cpu.branchPred.condPredicted            803104                       # Number of conditional branches predicted
system.cpu.branchPred.indirectHits              52515                       # Number of indirect target hits.
system.cpu.branchPred.indirectLookups          278462                       # Number of indirect predictor lookups.
system.cpu.branchPred.indirectMisses           225947                       # Number of indirect misses.
system.cpu.branchPred.lookups                  975154                       # Number of BP lookups
system.cpu.branchPred.usedRAS                   64018                       # Number of times the RAS was used to get a target.
system.cpu.branchPredindirectMispredicted        26604                       # Number of mispredicted indirect branches.
system.cpu.committedInsts                     4192810                       # Number of instructions committed
system.cpu.committedOps                       4192810                       # Number of ops (including micro ops) committed
system.cpu.cpi                               5.637894                       # CPI: cycles per instruction
system.cpu.discardedOps                        189289                       # Number of ops (including micro ops) which were discarded before commit
system.cpu.dtb.data_accesses                   606585                       # DTB accesses
system.cpu.dtb.data_acv                           131                       # DTB access violations
system.cpu.dtb.data_hits                      1450605                       # DTB hits
system.cpu.dtb.data_misses                       7675                       # DTB misses
system.cpu.dtb.fetch_accesses                       0                       # ITB accesses
system.cpu.dtb.fetch_acv                            0                       # ITB acv
system.cpu.dtb.fetch_hits                           0                       # ITB hits
system.cpu.dtb.fetch_misses                         0                       # ITB misses
system.cpu.dtb.read_accesses                   405306                       # DTB read accesses
system.cpu.dtb.read_acv                            43                       # DTB read access violations
system.cpu.dtb.read_hits                       848369                       # DTB read hits
system.cpu.dtb.read_misses                       6886                       # DTB read misses
system.cpu.dtb.write_accesses                  201279                       # DTB write accesses
system.cpu.dtb.write_acv                           88                       # DTB write access violations
system.cpu.dtb.write_hits                      602236                       # DTB write hits
system.cpu.dtb.write_misses                       789                       # DTB write misses
system.cpu.fetch2.amo_instructions                  0                       # Number of memory atomic instructions successfully decoded
system.cpu.fetch2.fp_instructions               18015                       # Number of floating point instructions successfully decoded
system.cpu.fetch2.int_instructions            3371805                       # Number of integer instructions successfully decoded
system.cpu.fetch2.load_instructions           1027230                       # Number of memory load instructions successfully decoded
system.cpu.fetch2.store_instructions           658556                       # Number of memory store instructions successfully decoded
system.cpu.fetch2.vec_instructions                  0                       # Number of SIMD instructions successfully decoded
system.cpu.idleCycles                        16743424                       # Total number of cycles that the object has spent stopped
system.cpu.ipc                               0.177371                       # IPC: instructions per cycle
system.cpu.itb.data_accesses                        0                       # DTB accesses
system.cpu.itb.data_acv                             0                       # DTB access violations
system.cpu.itb.data_hits                            0                       # DTB hits
system.cpu.itb.data_misses                          0                       # DTB misses
system.cpu.itb.fetch_accesses                  954880                       # ITB accesses
system.cpu.itb.fetch_acv                          542                       # ITB acv
system.cpu.itb.fetch_hits                      948157                       # ITB hits
system.cpu.itb.fetch_misses                      6723                       # ITB misses
system.cpu.itb.read_accesses                        0                       # DTB read accesses
system.cpu.itb.read_acv                             0                       # DTB read access violations
system.cpu.itb.read_hits                            0                       # DTB read hits
system.cpu.itb.read_misses                          0                       # DTB read misses
system.cpu.itb.write_accesses                       0                       # DTB write accesses
system.cpu.itb.write_acv                            0                       # DTB write access violations
system.cpu.itb.write_hits                           0                       # DTB write hits
system.cpu.itb.write_misses                         0                       # DTB write misses
system.cpu.kern.callpal::swpctx                   574      9.51%      9.51% # number of callpals executed
system.cpu.kern.callpal::tbi                       25      0.41%      9.92% # number of callpals executed
system.cpu.kern.callpal::swpipl                  4174     69.14%     79.06% # number of callpals executed
system.cpu.kern.callpal::rdps                      48      0.80%     79.86% # number of callpals executed
system.cpu.kern.callpal::wrusp                      4      0.07%     79.92% # number of callpals executed
system.cpu.kern.callpal::rdusp                      3      0.05%     79.97% # number of callpals executed
system.cpu.kern.callpal::rti                      896     14.84%     94.82% # number of callpals executed
system.cpu.kern.callpal::callsys                  235      3.89%     98.71% # number of callpals executed
system.cpu.kern.callpal::imb                       78      1.29%    100.00% # number of callpals executed
system.cpu.kern.callpal::total                   6037                       # number of callpals executed
system.cpu.kern.inst.arm                            0                       # number of arm instructions executed
system.cpu.kern.inst.hwrei                      14380                       # number of hwrei instructions executed
system.cpu.kern.inst.quiesce                        9                       # number of quiesce instructions executed
system.cpu.kern.ipl_count::0                     2412     47.41%     47.41% # number of times we switched to this ipl
system.cpu.kern.ipl_count::21                       5      0.10%     47.51% # number of times we switched to this ipl
system.cpu.kern.ipl_count::22                      12      0.24%     47.75% # number of times we switched to this ipl
system.cpu.kern.ipl_count::31                    2658     52.25%    100.00% # number of times we switched to this ipl
system.cpu.kern.ipl_count::total                 5087                       # number of times we switched to this ipl
system.cpu.kern.ipl_good::0                      2399     49.82%     49.82% # number of times we switched to this ipl from a different ipl
system.cpu.kern.ipl_good::21                        5      0.10%     49.93% # number of times we switched to this ipl from a different ipl
system.cpu.kern.ipl_good::22                       12      0.25%     50.18% # number of times we switched to this ipl from a different ipl
system.cpu.kern.ipl_good::31                     2399     49.82%    100.00% # number of times we switched to this ipl from a different ipl
system.cpu.kern.ipl_good::total                  4815                       # number of times we switched to this ipl from a different ipl
system.cpu.kern.ipl_ticks::0              10915869500     92.27%     92.27% # number of cycles we spent at this ipl
system.cpu.kern.ipl_ticks::21                 9175000      0.08%     92.35% # number of cycles we spent at this ipl
system.cpu.kern.ipl_ticks::22                17717500      0.15%     92.50% # number of cycles we spent at this ipl
system.cpu.kern.ipl_ticks::31               887630000      7.50%    100.00% # number of cycles we spent at this ipl
system.cpu.kern.ipl_ticks::total          11830392000                       # number of cycles we spent at this ipl
system.cpu.kern.ipl_used::0                  0.994610                       # fraction of swpipl calls that actually changed the ipl
system.cpu.kern.ipl_used::21                        1                       # fraction of swpipl calls that actually changed the ipl
system.cpu.kern.ipl_used::22                        1                       # fraction of swpipl calls that actually changed the ipl
system.cpu.kern.ipl_used::31                 0.902558                       # fraction of swpipl calls that actually changed the ipl
system.cpu.kern.ipl_used::total              0.946530                       # fraction of swpipl calls that actually changed the ipl
system.cpu.kern.mode_good::kernel                 869                      
system.cpu.kern.mode_good::user                   869                      
system.cpu.kern.mode_good::idle                     0                      
system.cpu.kern.mode_switch::kernel              1470                       # number of protection mode switches
system.cpu.kern.mode_switch::user                 869                       # number of protection mode switches
system.cpu.kern.mode_switch::idle                   0                       # number of protection mode switches
system.cpu.kern.mode_switch_good::kernel     0.591156                       # fraction of useful protection mode switches
system.cpu.kern.mode_switch_good::user              1                       # fraction of useful protection mode switches
system.cpu.kern.mode_switch_good::idle            nan                       # fraction of useful protection mode switches
system.cpu.kern.mode_switch_good::total      0.743053                       # fraction of useful protection mode switches
system.cpu.kern.mode_ticks::kernel         7993445000     67.57%     67.57% # number of ticks spent at the given mode
system.cpu.kern.mode_ticks::user           3836947000     32.43%    100.00% # number of ticks spent at the given mode
system.cpu.kern.mode_ticks::idle                    0      0.00%    100.00% # number of ticks spent at the given mode
system.cpu.kern.swap_context                      574                       # number of times the context was actually changed
system.cpu.numCycles                         23638618                       # number of cpu cycles simulated
system.cpu.numFetchSuspends                         9                       # Number of times Execute suspended instruction fetching
system.cpu.numWorkItemsCompleted                    0                       # number of work items this cpu completed
system.cpu.numWorkItemsStarted                      0                       # number of work items this cpu started
system.cpu.op_class_0::No_OpClass               85392      2.04%      2.04% # Class of committed instruction
system.cpu.op_class_0::IntAlu                 2539626     60.57%     62.61% # Class of committed instruction
system.cpu.op_class_0::IntMult                   3673      0.09%     62.70% # Class of committed instruction
system.cpu.op_class_0::IntDiv                       0      0.00%     62.70% # Class of committed instruction
system.cpu.op_class_0::FloatAdd                  8286      0.20%     62.89% # Class of committed instruction
system.cpu.op_class_0::FloatCmp                     0      0.00%     62.89% # Class of committed instruction
system.cpu.op_class_0::FloatCvt                     0      0.00%     62.89% # Class of committed instruction
system.cpu.op_class_0::FloatMult                    0      0.00%     62.89% # Class of committed instruction
system.cpu.op_class_0::FloatMultAcc                 0      0.00%     62.89% # Class of committed instruction
system.cpu.op_class_0::FloatDiv                  1593      0.04%     62.93% # Class of committed instruction
system.cpu.op_class_0::FloatMisc                    0      0.00%     62.93% # Class of committed instruction
system.cpu.op_class_0::FloatSqrt                    0      0.00%     62.93% # Class of committed instruction
system.cpu.op_class_0::SimdAdd                      0      0.00%     62.93% # Class of committed instruction
system.cpu.op_class_0::SimdAddAcc                   0      0.00%     62.93% # Class of committed instruction
system.cpu.op_class_0::SimdAlu                      0      0.00%     62.93% # Class of committed instruction
system.cpu.op_class_0::SimdCmp                      0      0.00%     62.93% # Class of committed instruction
system.cpu.op_class_0::SimdCvt                      0      0.00%     62.93% # Class of committed instruction
system.cpu.op_class_0::SimdMisc                     0      0.00%     62.93% # Class of committed instruction
system.cpu.op_class_0::SimdMult                     0      0.00%     62.93% # Class of committed instruction
system.cpu.op_class_0::SimdMultAcc                  0      0.00%     62.93% # Class of committed instruction
system.cpu.op_class_0::SimdShift                    0      0.00%     62.93% # Class of committed instruction
system.cpu.op_class_0::SimdShiftAcc                 0      0.00%     62.93% # Class of committed instruction
system.cpu.op_class_0::SimdDiv                      0      0.00%     62.93% # Class of committed instruction
system.cpu.op_class_0::SimdSqrt                     0      0.00%     62.93% # Class of committed instruction
system.cpu.op_class_0::SimdFloatAdd                 0      0.00%     62.93% # Class of committed instruction
system.cpu.op_class_0::SimdFloatAlu                 0      0.00%     62.93% # Class of committed instruction
system.cpu.op_class_0::SimdFloatCmp                 0      0.00%     62.93% # Class of committed instruction
system.cpu.op_class_0::SimdFloatCvt                 0      0.00%     62.93% # Class of committed instruction
system.cpu.op_class_0::SimdFloatDiv                 0      0.00%     62.93% # Class of committed instruction
system.cpu.op_class_0::SimdFloatMisc                0      0.00%     62.93% # Class of committed instruction
system.cpu.op_class_0::SimdFloatMult                0      0.00%     62.93% # Class of committed instruction
system.cpu.op_class_0::SimdFloatMultAcc             0      0.00%     62.93% # Class of committed instruction
system.cpu.op_class_0::SimdFloatSqrt                0      0.00%     62.93% # Class of committed instruction
system.cpu.op_class_0::SimdReduceAdd                0      0.00%     62.93% # Class of committed instruction
system.cpu.op_class_0::SimdReduceAlu                0      0.00%     62.93% # Class of committed instruction
system.cpu.op_class_0::SimdReduceCmp                0      0.00%     62.93% # Class of committed instruction
system.cpu.op_class_0::SimdFloatReduceAdd            0      0.00%     62.93% # Class of committed instruction
system.cpu.op_class_0::SimdFloatReduceCmp            0      0.00%     62.93% # Class of committed instruction
system.cpu.op_class_0::SimdAes                      0      0.00%     62.93% # Class of committed instruction
system.cpu.op_class_0::SimdAesMix                   0      0.00%     62.93% # Class of committed instruction
system.cpu.op_class_0::SimdSha1Hash                 0      0.00%     62.93% # Class of committed instruction
system.cpu.op_class_0::SimdSha1Hash2                0      0.00%     62.93% # Class of committed instruction
system.cpu.op_class_0::SimdSha256Hash               0      0.00%     62.93% # Class of committed instruction
system.cpu.op_class_0::SimdSha256Hash2              0      0.00%     62.93% # Class of committed instruction
system.cpu.op_class_0::SimdShaSigma2                0      0.00%     62.93% # Class of committed instruction
system.cpu.op_class_0::SimdShaSigma3                0      0.00%     62.93% # Class of committed instruction
system.cpu.op_class_0::SimdPredAlu                  0      0.00%     62.93% # Class of committed instruction
system.cpu.op_class_0::MemRead                 838619     20.00%     82.93% # Class of committed instruction
system.cpu.op_class_0::MemWrite                592178     14.12%     97.06% # Class of committed instruction
system.cpu.op_class_0::FloatMemRead              9988      0.24%     97.29% # Class of committed instruction
system.cpu.op_class_0::FloatMemWrite             8788      0.21%     97.50% # Class of committed instruction
system.cpu.op_class_0::IprAccess               104667      2.50%    100.00% # Class of committed instruction
system.cpu.op_class_0::InstPrefetch                 0      0.00%    100.00% # Class of committed instruction
system.cpu.op_class_0::total                  4192810                       # Class of committed instruction
system.cpu.quiesceCycles                        13645                       # Total number of cycles that CPU has spent quiesced or waiting for an interrupt
system.cpu.tickCycles                         6895194                       # Number of cycles that the object actually ticked
system.disk0.dma_read_bytes                         0                       # Number of bytes transfered via DMA reads (not PRD).
system.disk0.dma_read_full_pages                    0                       # Number of full page size DMA reads (not PRD).
system.disk0.dma_read_txs                           0                       # Number of DMA read transactions (not PRD).
system.disk0.dma_write_bytes                    12288                       # Number of bytes transfered via DMA writes.
system.disk0.dma_write_full_pages                   0                       # Number of full page size DMA writes.
system.disk0.dma_write_txs                          3                       # Number of DMA write transactions.
system.disk2.dma_read_bytes                         0                       # Number of bytes transfered via DMA reads (not PRD).
system.disk2.dma_read_full_pages                    0                       # Number of full page size DMA reads (not PRD).
system.disk2.dma_read_txs                           0                       # Number of DMA read transactions (not PRD).
system.disk2.dma_write_bytes                        0                       # Number of bytes transfered via DMA writes.
system.disk2.dma_write_full_pages                   0                       # Number of full page size DMA writes.
system.disk2.dma_write_txs                          0                       # Number of DMA write transactions.
system.membus.snoop_filter.hit_multi_requests          440                       # Number of requests hitting in the snoop filter with multiple (>1) holders of the requested data.
system.membus.snoop_filter.hit_multi_snoops            0                       # Number of snoops hitting in the snoop filter with multiple (>1) holders of the requested data.
system.membus.snoop_filter.hit_single_requests       155588                       # Number of requests hitting in the snoop filter with a single holder of the requested data.
system.membus.snoop_filter.hit_single_snoops            0                       # Number of snoops hitting in the snoop filter with a single holder of the requested data.
system.membus.snoop_filter.tot_requests        312781                       # Total number of requests made to the snoop filter.
system.membus.snoop_filter.tot_snoops               0                       # Total number of snoops made to the snoop filter.
system.tsunami.ethernet.coalescedRxDesc           nan                       # average number of RxDesc's coalesced into each post
system.tsunami.ethernet.coalescedRxIdle           nan                       # average number of RxIdle's coalesced into each post
system.tsunami.ethernet.coalescedRxOk             nan                       # average number of RxOk's coalesced into each post
system.tsunami.ethernet.coalescedRxOrn            nan                       # average number of RxOrn's coalesced into each post
system.tsunami.ethernet.coalescedSwi              nan                       # average number of Swi's coalesced into each post
system.tsunami.ethernet.coalescedTotal            nan                       # average number of interrupts coalesced into each post
system.tsunami.ethernet.coalescedTxDesc           nan                       # average number of TxDesc's coalesced into each post
system.tsunami.ethernet.coalescedTxIdle           nan                       # average number of TxIdle's coalesced into each post
system.tsunami.ethernet.coalescedTxOk             nan                       # average number of TxOk's coalesced into each post
system.tsunami.ethernet.descDMAReads                0                       # Number of descriptors the device read w/ DMA
system.tsunami.ethernet.descDMAWrites               0                       # Number of descriptors the device wrote w/ DMA
system.tsunami.ethernet.descDmaReadBytes            0                       # number of descriptor bytes read w/ DMA
system.tsunami.ethernet.descDmaWriteBytes            0                       # number of descriptor bytes write w/ DMA
system.tsunami.ethernet.droppedPackets              0                       # number of packets dropped
system.tsunami.ethernet.postedInterrupts            0                       # number of posts to CPU
system.tsunami.ethernet.postedRxDesc                0                       # number of RxDesc interrupts posted to CPU
system.tsunami.ethernet.postedRxIdle                0                       # number of rxIdle interrupts posted to CPU
system.tsunami.ethernet.postedRxOk                  0                       # number of RxOk interrupts posted to CPU
system.tsunami.ethernet.postedRxOrn                 0                       # number of RxOrn posted to CPU
system.tsunami.ethernet.postedSwi                   0                       # number of software interrupts posted to CPU
system.tsunami.ethernet.postedTxDesc                0                       # number of TxDesc interrupts posted to CPU
system.tsunami.ethernet.postedTxIdle                0                       # number of TxIdle interrupts posted to CPU
system.tsunami.ethernet.postedTxOk                  0                       # number of TxOk interrupts posted to CPU
system.tsunami.ethernet.totalRxDesc                 0                       # total number of RxDesc written to ISR
system.tsunami.ethernet.totalRxIdle                 0                       # total number of RxIdle written to ISR
system.tsunami.ethernet.totalRxOk                   0                       # total number of RxOk written to ISR
system.tsunami.ethernet.totalRxOrn                  0                       # total number of RxOrn written to ISR
system.tsunami.ethernet.totalSwi                    0                       # total number of Swi written to ISR
system.tsunami.ethernet.totalTxDesc                 0                       # total number of TxDesc written to ISR
system.tsunami.ethernet.totalTxIdle                 0                       # total number of TxIdle written to ISR
system.tsunami.ethernet.totalTxOk                   0                       # total number of TxOk written to ISR
system.bridge.pwrStateResidencyTicks::UNDEFINED 2541835976500                       # Cumulative time (in ticks) in various power states
system.voltage_domain.voltage                       1                       # Voltage in Volts
system.iocache.pwrStateResidencyTicks::UNDEFINED 2541835976500                       # Cumulative time (in ticks) in various power states
system.iocache.demand_misses::.tsunami.ide          195                       # number of demand (read+write) misses
system.iocache.demand_misses::total               195                       # number of demand (read+write) misses
system.iocache.overall_misses::.tsunami.ide          195                       # number of overall misses
system.iocache.overall_misses::total              195                       # number of overall misses
system.iocache.demand_miss_latency::.tsunami.ide     22864460                       # number of demand (read+write) miss cycles
system.iocache.demand_miss_latency::total     22864460                       # number of demand (read+write) miss cycles
system.iocache.overall_miss_latency::.tsunami.ide     22864460                       # number of overall miss cycles
system.iocache.overall_miss_latency::total     22864460                       # number of overall miss cycles
system.iocache.demand_accesses::.tsunami.ide          195                       # number of demand (read+write) accesses
system.iocache.demand_accesses::total             195                       # number of demand (read+write) accesses
system.iocache.overall_accesses::.tsunami.ide          195                       # number of overall (read+write) accesses
system.iocache.overall_accesses::total            195                       # number of overall (read+write) accesses
system.iocache.demand_miss_rate::.tsunami.ide            1                       # miss rate for demand accesses
system.iocache.demand_miss_rate::total              1                       # miss rate for demand accesses
system.iocache.overall_miss_rate::.tsunami.ide            1                       # miss rate for overall accesses
system.iocache.overall_miss_rate::total             1                       # miss rate for overall accesses
system.iocache.demand_avg_miss_latency::.tsunami.ide 117253.641026                       # average overall miss latency
system.iocache.demand_avg_miss_latency::total 117253.641026                       # average overall miss latency
system.iocache.overall_avg_miss_latency::.tsunami.ide 117253.641026                       # average overall miss latency
system.iocache.overall_avg_miss_latency::total 117253.641026                       # average overall miss latency
system.iocache.blocked_cycles::no_mshrs             0                       # number of cycles access was blocked
system.iocache.blocked_cycles::no_targets            0                       # number of cycles access was blocked
system.iocache.blocked::no_mshrs                    0                       # number of cycles access was blocked
system.iocache.blocked::no_targets                  0                       # number of cycles access was blocked
system.iocache.avg_blocked_cycles::no_mshrs          nan                       # average number of cycles each access was blocked
system.iocache.avg_blocked_cycles::no_targets          nan                       # average number of cycles each access was blocked
system.iocache.writebacks::.writebacks            176                       # number of writebacks
system.iocache.writebacks::total                  176                       # number of writebacks
system.iocache.demand_mshr_misses::.tsunami.ide          195                       # number of demand (read+write) MSHR misses
system.iocache.demand_mshr_misses::total          195                       # number of demand (read+write) MSHR misses
system.iocache.overall_mshr_misses::.tsunami.ide          195                       # number of overall MSHR misses
system.iocache.overall_mshr_misses::total          195                       # number of overall MSHR misses
system.iocache.demand_mshr_miss_latency::.tsunami.ide     13105483                       # number of demand (read+write) MSHR miss cycles
system.iocache.demand_mshr_miss_latency::total     13105483                       # number of demand (read+write) MSHR miss cycles
system.iocache.overall_mshr_miss_latency::.tsunami.ide     13105483                       # number of overall MSHR miss cycles
system.iocache.overall_mshr_miss_latency::total     13105483                       # number of overall MSHR miss cycles
system.iocache.demand_mshr_miss_rate::.tsunami.ide            1                       # mshr miss rate for demand accesses
system.iocache.demand_mshr_miss_rate::total            1                       # mshr miss rate for demand accesses
system.iocache.overall_mshr_miss_rate::.tsunami.ide            1                       # mshr miss rate for overall accesses
system.iocache.overall_mshr_miss_rate::total            1                       # mshr miss rate for overall accesses
system.iocache.demand_avg_mshr_miss_latency::.tsunami.ide 67207.605128                       # average overall mshr miss latency
system.iocache.demand_avg_mshr_miss_latency::total 67207.605128                       # average overall mshr miss latency
system.iocache.overall_avg_mshr_miss_latency::.tsunami.ide 67207.605128                       # average overall mshr miss latency
system.iocache.overall_avg_mshr_miss_latency::total 67207.605128                       # average overall mshr miss latency
system.iocache.replacements                       179                       # number of replacements
system.iocache.ReadReq_misses::.tsunami.ide            3                       # number of ReadReq misses
system.iocache.ReadReq_misses::total                3                       # number of ReadReq misses
system.iocache.ReadReq_miss_latency::.tsunami.ide       349497                       # number of ReadReq miss cycles
system.iocache.ReadReq_miss_latency::total       349497                       # number of ReadReq miss cycles
system.iocache.ReadReq_accesses::.tsunami.ide            3                       # number of ReadReq accesses(hits+misses)
system.iocache.ReadReq_accesses::total              3                       # number of ReadReq accesses(hits+misses)
system.iocache.ReadReq_miss_rate::.tsunami.ide            1                       # miss rate for ReadReq accesses
system.iocache.ReadReq_miss_rate::total             1                       # miss rate for ReadReq accesses
system.iocache.ReadReq_avg_miss_latency::.tsunami.ide       116499                       # average ReadReq miss latency
system.iocache.ReadReq_avg_miss_latency::total       116499                       # average ReadReq miss latency
system.iocache.ReadReq_mshr_misses::.tsunami.ide            3                       # number of ReadReq MSHR misses
system.iocache.ReadReq_mshr_misses::total            3                       # number of ReadReq MSHR misses
system.iocache.ReadReq_mshr_miss_latency::.tsunami.ide       199497                       # number of ReadReq MSHR miss cycles
system.iocache.ReadReq_mshr_miss_latency::total       199497                       # number of ReadReq MSHR miss cycles
system.iocache.ReadReq_mshr_miss_rate::.tsunami.ide            1                       # mshr miss rate for ReadReq accesses
system.iocache.ReadReq_mshr_miss_rate::total            1                       # mshr miss rate for ReadReq accesses
system.iocache.ReadReq_avg_mshr_miss_latency::.tsunami.ide        66499                       # average ReadReq mshr miss latency
system.iocache.ReadReq_avg_mshr_miss_latency::total        66499                       # average ReadReq mshr miss latency
system.iocache.WriteLineReq_misses::.tsunami.ide          192                       # number of WriteLineReq misses
system.iocache.WriteLineReq_misses::total          192                       # number of WriteLineReq misses
system.iocache.WriteLineReq_miss_latency::.tsunami.ide     22514963                       # number of WriteLineReq miss cycles
system.iocache.WriteLineReq_miss_latency::total     22514963                       # number of WriteLineReq miss cycles
system.iocache.WriteLineReq_accesses::.tsunami.ide          192                       # number of WriteLineReq accesses(hits+misses)
system.iocache.WriteLineReq_accesses::total          192                       # number of WriteLineReq accesses(hits+misses)
system.iocache.WriteLineReq_miss_rate::.tsunami.ide            1                       # miss rate for WriteLineReq accesses
system.iocache.WriteLineReq_miss_rate::total            1                       # miss rate for WriteLineReq accesses
system.iocache.WriteLineReq_avg_miss_latency::.tsunami.ide 117265.432292                       # average WriteLineReq miss latency
system.iocache.WriteLineReq_avg_miss_latency::total 117265.432292                       # average WriteLineReq miss latency
system.iocache.WriteLineReq_mshr_misses::.tsunami.ide          192                       # number of WriteLineReq MSHR misses
system.iocache.WriteLineReq_mshr_misses::total          192                       # number of WriteLineReq MSHR misses
system.iocache.WriteLineReq_mshr_miss_latency::.tsunami.ide     12905986                       # number of WriteLineReq MSHR miss cycles
system.iocache.WriteLineReq_mshr_miss_latency::total     12905986                       # number of WriteLineReq MSHR miss cycles
system.iocache.WriteLineReq_mshr_miss_rate::.tsunami.ide            1                       # mshr miss rate for WriteLineReq accesses
system.iocache.WriteLineReq_mshr_miss_rate::total            1                       # mshr miss rate for WriteLineReq accesses
system.iocache.WriteLineReq_avg_mshr_miss_latency::.tsunami.ide 67218.677083                       # average WriteLineReq mshr miss latency
system.iocache.WriteLineReq_avg_mshr_miss_latency::total 67218.677083                       # average WriteLineReq mshr miss latency
system.iocache.tags.pwrStateResidencyTicks::UNDEFINED 2541835976500                       # Cumulative time (in ticks) in various power states
system.iocache.tags.tagsinuse                3.278823                       # Cycle average of tags in use
system.iocache.tags.total_refs                    179                       # Total number of references to valid blocks.
system.iocache.tags.sampled_refs                  179                       # Sample count of references to valid blocks.
system.iocache.tags.avg_refs                        1                       # Average number of references to valid blocks.
system.iocache.tags.warmup_cycle         2539411412000                       # Cycle when the warmup percentage was hit.
system.iocache.tags.occ_blocks::.tsunami.ide     3.278823                       # Average occupied blocks per requestor
system.iocache.tags.occ_percent::.tsunami.ide     0.204926                       # Average percentage of cache occupancy
system.iocache.tags.occ_percent::total       0.204926                       # Average percentage of cache occupancy
system.iocache.tags.occ_task_id_blocks::1023           16                       # Occupied blocks per task id
system.iocache.tags.age_task_id_blocks_1023::3           16                       # Occupied blocks per task id
system.iocache.tags.occ_task_id_percent::1023            1                       # Percentage of cache occupancy per task id
system.iocache.tags.tag_accesses                 1755                       # Number of tag accesses
system.iocache.tags.data_accesses                1755                       # Number of data accesses
system.membus.pwrStateResidencyTicks::UNDEFINED 2541835976500                       # Cumulative time (in ticks) in various power states
system.membus.trans_dist::ReadReq                 108                       # Transaction distribution
system.membus.trans_dist::ReadResp             128103                       # Transaction distribution
system.membus.trans_dist::WriteReq                 99                       # Transaction distribution
system.membus.trans_dist::WriteResp                99                       # Transaction distribution
system.membus.trans_dist::WritebackDirty        34847                       # Transaction distribution
system.membus.trans_dist::WritebackClean        86560                       # Transaction distribution
system.membus.trans_dist::CleanEvict            34160                       # Transaction distribution
system.membus.trans_dist::UpgradeReq               16                       # Transaction distribution
system.membus.trans_dist::ReadExReq             29010                       # Transaction distribution
system.membus.trans_dist::ReadExResp            29010                       # Transaction distribution
system.membus.trans_dist::ReadCleanReq          87150                       # Transaction distribution
system.membus.trans_dist::ReadSharedReq         40846                       # Transaction distribution
system.membus.trans_dist::BadAddressError            1                       # Transaction distribution
system.membus.trans_dist::InvalidateReq           192                       # Transaction distribution
system.membus.pkt_count_system.iocache.mem_side::system.mem_ctrls.port          374                       # Packet count per connected master and slave (bytes)
system.membus.pkt_count_system.iocache.mem_side::total          374                       # Packet count per connected master and slave (bytes)
system.membus.pkt_count_system.cpu.icache.mem_side::system.mem_ctrls.port       260797                       # Packet count per connected master and slave (bytes)
system.membus.pkt_count_system.cpu.icache.mem_side::total       260797                       # Packet count per connected master and slave (bytes)
system.membus.pkt_count_system.cpu.dcache.mem_side::system.bridge.slave          414                       # Packet count per connected master and slave (bytes)
system.membus.pkt_count_system.cpu.dcache.mem_side::system.mem_ctrls.port       208548                       # Packet count per connected master and slave (bytes)
system.membus.pkt_count_system.cpu.dcache.mem_side::system.membus.badaddr_responder.pio            2                       # Packet count per connected master and slave (bytes)
system.membus.pkt_count_system.cpu.dcache.mem_side::total       208964                       # Packet count per connected master and slave (bytes)
system.membus.pkt_count::total                 470135                       # Packet count per connected master and slave (bytes)
system.membus.pkt_size_system.iocache.mem_side::system.mem_ctrls.port        11264                       # Cumulative packet size per connected master and slave (bytes)
system.membus.pkt_size_system.iocache.mem_side::total        11264                       # Cumulative packet size per connected master and slave (bytes)
system.membus.pkt_size_system.cpu.icache.mem_side::system.mem_ctrls.port     11113408                       # Cumulative packet size per connected master and slave (bytes)
system.membus.pkt_size_system.cpu.icache.mem_side::total     11113408                       # Cumulative packet size per connected master and slave (bytes)
system.membus.pkt_size_system.cpu.dcache.mem_side::system.bridge.slave          433                       # Cumulative packet size per connected master and slave (bytes)
system.membus.pkt_size_system.cpu.dcache.mem_side::system.mem_ctrls.port      6689472                       # Cumulative packet size per connected master and slave (bytes)
system.membus.pkt_size_system.cpu.dcache.mem_side::total      6689905                       # Cumulative packet size per connected master and slave (bytes)
system.membus.pkt_size::total                17814577                       # Cumulative packet size per connected master and slave (bytes)
system.membus.snoops                               66                       # Total snoops (count)
system.membus.snoopTraffic                       4224                       # Total snoop traffic (bytes)
system.membus.snoop_fanout::samples            157421                       # Request fanout histogram
system.membus.snoop_fanout::mean             0.002808                       # Request fanout histogram
system.membus.snoop_fanout::stdev            0.052914                       # Request fanout histogram
system.membus.snoop_fanout::underflows              0      0.00%      0.00% # Request fanout histogram
system.membus.snoop_fanout::0                  156979     99.72%     99.72% # Request fanout histogram
system.membus.snoop_fanout::1                     442      0.28%    100.00% # Request fanout histogram
system.membus.snoop_fanout::2                       0      0.00%    100.00% # Request fanout histogram
system.membus.snoop_fanout::3                       0      0.00%    100.00% # Request fanout histogram
system.membus.snoop_fanout::overflows               0      0.00%    100.00% # Request fanout histogram
system.membus.snoop_fanout::min_value               0                       # Request fanout histogram
system.membus.snoop_fanout::max_value               1                       # Request fanout histogram
system.membus.snoop_fanout::total              157421                       # Request fanout histogram
system.membus.reqLayer0.occupancy              352500                       # Layer occupancy (ticks)
system.membus.reqLayer0.utilization               0.0                       # Layer utilization (%)
system.membus.reqLayer1.occupancy           820731026                       # Layer occupancy (ticks)
system.membus.reqLayer1.utilization               6.9                       # Layer utilization (%)
system.membus.reqLayer2.occupancy                1500                       # Layer occupancy (ticks)
system.membus.reqLayer2.utilization               0.0                       # Layer utilization (%)
system.membus.respLayer1.occupancy              17997                       # Layer occupancy (ticks)
system.membus.respLayer1.utilization              0.0                       # Layer utilization (%)
system.membus.respLayer3.occupancy          375806000                       # Layer occupancy (ticks)
system.membus.respLayer3.utilization              3.2                       # Layer utilization (%)
system.membus.badaddr_responder.pwrStateResidencyTicks::UNDEFINED 2541835976500                       # Cumulative time (in ticks) in various power states
system.membus.respLayer2.occupancy          462175250                       # Layer occupancy (ticks)
system.membus.respLayer2.utilization              3.9                       # Layer utilization (%)
system.clk_domain.clock                          1000                       # Clock period in ticks
system.tsunami.fake_uart1.pwrStateResidencyTicks::UNDEFINED 2541835976500                       # Cumulative time (in ticks) in various power states
system.tsunami.fake_uart2.pwrStateResidencyTicks::UNDEFINED 2541835976500                       # Cumulative time (in ticks) in various power states
system.tsunami.fake_uart3.pwrStateResidencyTicks::UNDEFINED 2541835976500                       # Cumulative time (in ticks) in various power states
system.tsunami.fake_uart4.pwrStateResidencyTicks::UNDEFINED 2541835976500                       # Cumulative time (in ticks) in various power states
system.tsunami.fake_ppc.pwrStateResidencyTicks::UNDEFINED 2541835976500                       # Cumulative time (in ticks) in various power states
system.tsunami.cchip.pwrStateResidencyTicks::UNDEFINED 2541835976500                       # Cumulative time (in ticks) in various power states
system.tsunami.io.pwrStateResidencyTicks::UNDEFINED 2541835976500                       # Cumulative time (in ticks) in various power states
system.tsunami.pchip.pwrStateResidencyTicks::UNDEFINED 2541835976500                       # Cumulative time (in ticks) in various power states
system.tsunami.fake_ata1.pwrStateResidencyTicks::UNDEFINED 2541835976500                       # Cumulative time (in ticks) in various power states
system.tsunami.fake_ata0.pwrStateResidencyTicks::UNDEFINED 2541835976500                       # Cumulative time (in ticks) in various power states
system.tsunami.backdoor.pwrStateResidencyTicks::UNDEFINED 2541835976500                       # Cumulative time (in ticks) in various power states
system.tsunami.fake_pnp_read3.pwrStateResidencyTicks::UNDEFINED 2541835976500                       # Cumulative time (in ticks) in various power states
system.tsunami.fake_pnp_read2.pwrStateResidencyTicks::UNDEFINED 2541835976500                       # Cumulative time (in ticks) in various power states
system.tsunami.fake_pnp_read1.pwrStateResidencyTicks::UNDEFINED 2541835976500                       # Cumulative time (in ticks) in various power states
system.tsunami.fake_pnp_read0.pwrStateResidencyTicks::UNDEFINED 2541835976500                       # Cumulative time (in ticks) in various power states
system.tsunami.fake_pnp_read7.pwrStateResidencyTicks::UNDEFINED 2541835976500                       # Cumulative time (in ticks) in various power states
system.tsunami.fake_pnp_read6.pwrStateResidencyTicks::UNDEFINED 2541835976500                       # Cumulative time (in ticks) in various power states
system.tsunami.fake_pnp_read5.pwrStateResidencyTicks::UNDEFINED 2541835976500                       # Cumulative time (in ticks) in various power states
system.tsunami.fake_pnp_read4.pwrStateResidencyTicks::UNDEFINED 2541835976500                       # Cumulative time (in ticks) in various power states
system.tsunami.fake_pnp_write.pwrStateResidencyTicks::UNDEFINED 2541835976500                       # Cumulative time (in ticks) in various power states
system.tsunami.fb.pwrStateResidencyTicks::UNDEFINED 2541835976500                       # Cumulative time (in ticks) in various power states
system.tsunami.fake_pnp_addr.pwrStateResidencyTicks::UNDEFINED 2541835976500                       # Cumulative time (in ticks) in various power states
system.tsunami.fake_OROM.pwrStateResidencyTicks::UNDEFINED 2541835976500                       # Cumulative time (in ticks) in various power states
system.tsunami.uart.pwrStateResidencyTicks::UNDEFINED 2541835976500                       # Cumulative time (in ticks) in various power states
system.tsunami.fake_sm_chip.pwrStateResidencyTicks::UNDEFINED 2541835976500                       # Cumulative time (in ticks) in various power states
system.tsunami.ethernet.pwrStateResidencyTicks::UNDEFINED 2541835976500                       # Cumulative time (in ticks) in various power states
system.tsunami.ide.pwrStateResidencyTicks::UNDEFINED 2541835976500                       # Cumulative time (in ticks) in various power states
system.cpu_voltage_domain.voltage                   1                       # Voltage in Volts
system.mem_ctrls.pwrStateResidencyTicks::UNDEFINED 2541835976500                       # Cumulative time (in ticks) in various power states
system.mem_ctrls.bytes_read::.cpu.inst        5573568                       # Number of bytes read from this memory
system.mem_ctrls.bytes_read::.cpu.data        4470528                       # Number of bytes read from this memory
system.mem_ctrls.bytes_read::total           10044096                       # Number of bytes read from this memory
system.mem_ctrls.bytes_inst_read::.cpu.inst      5573568                       # Number of instructions bytes read from this memory
system.mem_ctrls.bytes_inst_read::total       5573568                       # Number of instructions bytes read from this memory
system.mem_ctrls.bytes_written::.writebacks      2230208                       # Number of bytes written to this memory
system.mem_ctrls.bytes_written::total         2230208                       # Number of bytes written to this memory
system.mem_ctrls.num_reads::.cpu.inst           87087                       # Number of read requests responded to by this memory
system.mem_ctrls.num_reads::.cpu.data           69852                       # Number of read requests responded to by this memory
system.mem_ctrls.num_reads::total              156939                       # Number of read requests responded to by this memory
system.mem_ctrls.num_writes::.writebacks        34847                       # Number of write requests responded to by this memory
system.mem_ctrls.num_writes::total              34847                       # Number of write requests responded to by this memory
system.mem_ctrls.bw_read::.cpu.inst         471292578                       # Total read bandwidth from this memory (bytes/s)
system.mem_ctrls.bw_read::.cpu.data         378021164                       # Total read bandwidth from this memory (bytes/s)
system.mem_ctrls.bw_read::total             849313742                       # Total read bandwidth from this memory (bytes/s)
system.mem_ctrls.bw_inst_read::.cpu.inst    471292578                       # Instruction read bandwidth from this memory (bytes/s)
system.mem_ctrls.bw_inst_read::total        471292578                       # Instruction read bandwidth from this memory (bytes/s)
system.mem_ctrls.bw_write::.writebacks      188583054                       # Write bandwidth from this memory (bytes/s)
system.mem_ctrls.bw_write::total            188583054                       # Write bandwidth from this memory (bytes/s)
system.mem_ctrls.bw_total::.writebacks      188583054                       # Total bandwidth to/from this memory (bytes/s)
system.mem_ctrls.bw_total::.cpu.inst        471292578                       # Total bandwidth to/from this memory (bytes/s)
system.mem_ctrls.bw_total::.cpu.data        378021164                       # Total bandwidth to/from this memory (bytes/s)
system.mem_ctrls.bw_total::total           1037896797                       # Total bandwidth to/from this memory (bytes/s)
system.mem_ctrls.avgPriority_.writebacks::samples    119013.00                       # Average QoS priority value for accepted requests
system.mem_ctrls.avgPriority_.cpu.inst::samples     77307.00                       # Average QoS priority value for accepted requests
system.mem_ctrls.avgPriority_.cpu.data::samples     69352.00                       # Average QoS priority value for accepted requests
system.mem_ctrls.priorityMinLatency      0.000000018750                       # per QoS priority minimum request to response latency (s)
system.mem_ctrls.priorityMaxLatency      0.000124364750                       # per QoS priority maximum request to response latency (s)
system.mem_ctrls.numReadWriteTurnArounds         7322                       # Number of turnarounds from READ to WRITE
system.mem_ctrls.numWriteReadTurnArounds         7322                       # Number of turnarounds from WRITE to READ
system.mem_ctrls.numStayReadState              406781                       # Number of times bus staying in READ state
system.mem_ctrls.numStayWriteState             111775                       # Number of times bus staying in WRITE state
system.mem_ctrls.readReqs                      156939                       # Number of read requests accepted
system.mem_ctrls.writeReqs                     121187                       # Number of write requests accepted
system.mem_ctrls.readBursts                    156939                       # Number of DRAM read bursts, including those serviced by the write queue
system.mem_ctrls.writeBursts                   121187                       # Number of DRAM write bursts, including those merged in the write queue
system.mem_ctrls.servicedByWrQ                  10280                       # Number of DRAM read bursts serviced by the write queue
system.mem_ctrls.mergedWrBursts                  2174                       # Number of DRAM write bursts merged with an existing one
system.mem_ctrls.neitherReadNorWriteReqs            0                       # Number of requests that are neither read nor write
system.mem_ctrls.perBankRdBursts::0              8761                       # Per bank write bursts
system.mem_ctrls.perBankRdBursts::1              6749                       # Per bank write bursts
system.mem_ctrls.perBankRdBursts::2              9923                       # Per bank write bursts
system.mem_ctrls.perBankRdBursts::3              7164                       # Per bank write bursts
system.mem_ctrls.perBankRdBursts::4              8516                       # Per bank write bursts
system.mem_ctrls.perBankRdBursts::5             10055                       # Per bank write bursts
system.mem_ctrls.perBankRdBursts::6              8501                       # Per bank write bursts
system.mem_ctrls.perBankRdBursts::7              8683                       # Per bank write bursts
system.mem_ctrls.perBankRdBursts::8             11814                       # Per bank write bursts
system.mem_ctrls.perBankRdBursts::9              9209                       # Per bank write bursts
system.mem_ctrls.perBankRdBursts::10            10656                       # Per bank write bursts
system.mem_ctrls.perBankRdBursts::11            11964                       # Per bank write bursts
system.mem_ctrls.perBankRdBursts::12             8869                       # Per bank write bursts
system.mem_ctrls.perBankRdBursts::13            13490                       # Per bank write bursts
system.mem_ctrls.perBankRdBursts::14             5508                       # Per bank write bursts
system.mem_ctrls.perBankRdBursts::15             6797                       # Per bank write bursts
system.mem_ctrls.perBankWrBursts::0              7056                       # Per bank write bursts
system.mem_ctrls.perBankWrBursts::1              4543                       # Per bank write bursts
system.mem_ctrls.perBankWrBursts::2              8588                       # Per bank write bursts
system.mem_ctrls.perBankWrBursts::3              7937                       # Per bank write bursts
system.mem_ctrls.perBankWrBursts::4              7680                       # Per bank write bursts
system.mem_ctrls.perBankWrBursts::5              9880                       # Per bank write bursts
system.mem_ctrls.perBankWrBursts::6              7276                       # Per bank write bursts
system.mem_ctrls.perBankWrBursts::7              6862                       # Per bank write bursts
system.mem_ctrls.perBankWrBursts::8             10605                       # Per bank write bursts
system.mem_ctrls.perBankWrBursts::9              8400                       # Per bank write bursts
system.mem_ctrls.perBankWrBursts::10             7947                       # Per bank write bursts
system.mem_ctrls.perBankWrBursts::11             8017                       # Per bank write bursts
system.mem_ctrls.perBankWrBursts::12             5436                       # Per bank write bursts
system.mem_ctrls.perBankWrBursts::13             9935                       # Per bank write bursts
system.mem_ctrls.perBankWrBursts::14             3158                       # Per bank write bursts
system.mem_ctrls.perBankWrBursts::15             5673                       # Per bank write bursts
system.mem_ctrls.avgRdQLen                       1.09                       # Average read queue length when enqueuing
system.mem_ctrls.avgWrQLen                      25.73                       # Average write queue length when enqueuing
system.mem_ctrls.totQLat                   2010122500                       # Total ticks spent queuing
system.mem_ctrls.totBusLat                  733295000                       # Total ticks spent in databus transfers
system.mem_ctrls.totMemAccLat              4759978750                       # Total ticks spent from burst creation until serviced by the DRAM
system.mem_ctrls.avgQLat                     13706.10                       # Average queueing delay per DRAM burst
system.mem_ctrls.avgBusLat                    5000.00                       # Average bus latency per DRAM burst
system.mem_ctrls.avgMemAccLat                32456.10                       # Average memory access latency per DRAM burst
system.mem_ctrls.numRdRetry                         0                       # Number of times read queue was full causing retry
system.mem_ctrls.numWrRetry                         0                       # Number of times write queue was full causing retry
system.mem_ctrls.readRowHits                   103889                       # Number of row buffer hits during reads
system.mem_ctrls.writeRowHits                   80197                       # Number of row buffer hits during writes
system.mem_ctrls.readRowHitRate                 70.84                       # Row buffer hit rate for reads
system.mem_ctrls.writeRowHitRate                67.39                       # Row buffer hit rate for writes
system.mem_ctrls.readPktSize::0                     0                       # Read request sizes (log2)
system.mem_ctrls.readPktSize::1                     0                       # Read request sizes (log2)
system.mem_ctrls.readPktSize::2                     0                       # Read request sizes (log2)
system.mem_ctrls.readPktSize::3                     0                       # Read request sizes (log2)
system.mem_ctrls.readPktSize::4                     0                       # Read request sizes (log2)
system.mem_ctrls.readPktSize::5                     0                       # Read request sizes (log2)
system.mem_ctrls.readPktSize::6                156939                       # Read request sizes (log2)
system.mem_ctrls.writePktSize::0                    0                       # Write request sizes (log2)
system.mem_ctrls.writePktSize::1                    0                       # Write request sizes (log2)
system.mem_ctrls.writePktSize::2                    0                       # Write request sizes (log2)
system.mem_ctrls.writePktSize::3                    0                       # Write request sizes (log2)
system.mem_ctrls.writePktSize::4                    0                       # Write request sizes (log2)
system.mem_ctrls.writePktSize::5                    0                       # Write request sizes (log2)
system.mem_ctrls.writePktSize::6               121187                       # Write request sizes (log2)
system.mem_ctrls.rdQLenPdf::0                  134192                       # What read queue length does an incoming req see
system.mem_ctrls.rdQLenPdf::1                   12155                       # What read queue length does an incoming req see
system.mem_ctrls.rdQLenPdf::2                     312                       # What read queue length does an incoming req see
system.mem_ctrls.rdQLenPdf::3                       0                       # What read queue length does an incoming req see
system.mem_ctrls.rdQLenPdf::4                       0                       # What read queue length does an incoming req see
system.mem_ctrls.rdQLenPdf::5                       0                       # What read queue length does an incoming req see
system.mem_ctrls.rdQLenPdf::6                       0                       # What read queue length does an incoming req see
system.mem_ctrls.rdQLenPdf::7                       0                       # What read queue length does an incoming req see
system.mem_ctrls.rdQLenPdf::8                       0                       # What read queue length does an incoming req see
system.mem_ctrls.rdQLenPdf::9                       0                       # What read queue length does an incoming req see
system.mem_ctrls.rdQLenPdf::10                      0                       # What read queue length does an incoming req see
system.mem_ctrls.rdQLenPdf::11                      0                       # What read queue length does an incoming req see
system.mem_ctrls.rdQLenPdf::12                      0                       # What read queue length does an incoming req see
system.mem_ctrls.rdQLenPdf::13                      0                       # What read queue length does an incoming req see
system.mem_ctrls.rdQLenPdf::14                      0                       # What read queue length does an incoming req see
system.mem_ctrls.rdQLenPdf::15                      0                       # What read queue length does an incoming req see
system.mem_ctrls.rdQLenPdf::16                      0                       # What read queue length does an incoming req see
system.mem_ctrls.rdQLenPdf::17                      0                       # What read queue length does an incoming req see
system.mem_ctrls.rdQLenPdf::18                      0                       # What read queue length does an incoming req see
system.mem_ctrls.rdQLenPdf::19                      0                       # What read queue length does an incoming req see
system.mem_ctrls.rdQLenPdf::20                      0                       # What read queue length does an incoming req see
system.mem_ctrls.rdQLenPdf::21                      0                       # What read queue length does an incoming req see
system.mem_ctrls.rdQLenPdf::22                      0                       # What read queue length does an incoming req see
system.mem_ctrls.rdQLenPdf::23                      0                       # What read queue length does an incoming req see
system.mem_ctrls.rdQLenPdf::24                      0                       # What read queue length does an incoming req see
system.mem_ctrls.rdQLenPdf::25                      0                       # What read queue length does an incoming req see
system.mem_ctrls.rdQLenPdf::26                      0                       # What read queue length does an incoming req see
system.mem_ctrls.rdQLenPdf::27                      0                       # What read queue length does an incoming req see
system.mem_ctrls.rdQLenPdf::28                      0                       # What read queue length does an incoming req see
system.mem_ctrls.rdQLenPdf::29                      0                       # What read queue length does an incoming req see
system.mem_ctrls.rdQLenPdf::30                      0                       # What read queue length does an incoming req see
system.mem_ctrls.rdQLenPdf::31                      0                       # What read queue length does an incoming req see
system.mem_ctrls.wrQLenPdf::0                       1                       # What write queue length does an incoming req see
system.mem_ctrls.wrQLenPdf::1                       1                       # What write queue length does an incoming req see
system.mem_ctrls.wrQLenPdf::2                       1                       # What write queue length does an incoming req see
system.mem_ctrls.wrQLenPdf::3                       1                       # What write queue length does an incoming req see
system.mem_ctrls.wrQLenPdf::4                       1                       # What write queue length does an incoming req see
system.mem_ctrls.wrQLenPdf::5                       1                       # What write queue length does an incoming req see
system.mem_ctrls.wrQLenPdf::6                       1                       # What write queue length does an incoming req see
system.mem_ctrls.wrQLenPdf::7                       1                       # What write queue length does an incoming req see
system.mem_ctrls.wrQLenPdf::8                       1                       # What write queue length does an incoming req see
system.mem_ctrls.wrQLenPdf::9                       1                       # What write queue length does an incoming req see
system.mem_ctrls.wrQLenPdf::10                      1                       # What write queue length does an incoming req see
system.mem_ctrls.wrQLenPdf::11                      1                       # What write queue length does an incoming req see
system.mem_ctrls.wrQLenPdf::12                      1                       # What write queue length does an incoming req see
system.mem_ctrls.wrQLenPdf::13                      1                       # What write queue length does an incoming req see
system.mem_ctrls.wrQLenPdf::14                      1                       # What write queue length does an incoming req see
system.mem_ctrls.wrQLenPdf::15                    671                       # What write queue length does an incoming req see
system.mem_ctrls.wrQLenPdf::16                    775                       # What write queue length does an incoming req see
system.mem_ctrls.wrQLenPdf::17                   6711                       # What write queue length does an incoming req see
system.mem_ctrls.wrQLenPdf::18                   7321                       # What write queue length does an incoming req see
system.mem_ctrls.wrQLenPdf::19                   7454                       # What write queue length does an incoming req see
system.mem_ctrls.wrQLenPdf::20                   7402                       # What write queue length does an incoming req see
system.mem_ctrls.wrQLenPdf::21                   7421                       # What write queue length does an incoming req see
system.mem_ctrls.wrQLenPdf::22                   7487                       # What write queue length does an incoming req see
system.mem_ctrls.wrQLenPdf::23                   7421                       # What write queue length does an incoming req see
system.mem_ctrls.wrQLenPdf::24                   7406                       # What write queue length does an incoming req see
system.mem_ctrls.wrQLenPdf::25                   7386                       # What write queue length does an incoming req see
system.mem_ctrls.wrQLenPdf::26                   7427                       # What write queue length does an incoming req see
system.mem_ctrls.wrQLenPdf::27                   7395                       # What write queue length does an incoming req see
system.mem_ctrls.wrQLenPdf::28                   7377                       # What write queue length does an incoming req see
system.mem_ctrls.wrQLenPdf::29                   7343                       # What write queue length does an incoming req see
system.mem_ctrls.wrQLenPdf::30                   7328                       # What write queue length does an incoming req see
system.mem_ctrls.wrQLenPdf::31                   7323                       # What write queue length does an incoming req see
system.mem_ctrls.wrQLenPdf::32                   7323                       # What write queue length does an incoming req see
system.mem_ctrls.wrQLenPdf::33                     15                       # What write queue length does an incoming req see
system.mem_ctrls.wrQLenPdf::34                      7                       # What write queue length does an incoming req see
system.mem_ctrls.wrQLenPdf::35                      3                       # What write queue length does an incoming req see
system.mem_ctrls.wrQLenPdf::36                      1                       # What write queue length does an incoming req see
system.mem_ctrls.wrQLenPdf::37                      1                       # What write queue length does an incoming req see
system.mem_ctrls.wrQLenPdf::38                      0                       # What write queue length does an incoming req see
system.mem_ctrls.wrQLenPdf::39                      0                       # What write queue length does an incoming req see
system.mem_ctrls.wrQLenPdf::40                      0                       # What write queue length does an incoming req see
system.mem_ctrls.wrQLenPdf::41                      0                       # What write queue length does an incoming req see
system.mem_ctrls.wrQLenPdf::42                      0                       # What write queue length does an incoming req see
system.mem_ctrls.wrQLenPdf::43                      0                       # What write queue length does an incoming req see
system.mem_ctrls.wrQLenPdf::44                      0                       # What write queue length does an incoming req see
system.mem_ctrls.wrQLenPdf::45                      0                       # What write queue length does an incoming req see
system.mem_ctrls.wrQLenPdf::46                      0                       # What write queue length does an incoming req see
system.mem_ctrls.wrQLenPdf::47                      0                       # What write queue length does an incoming req see
system.mem_ctrls.wrQLenPdf::48                      0                       # What write queue length does an incoming req see
system.mem_ctrls.wrQLenPdf::49                      0                       # What write queue length does an incoming req see
system.mem_ctrls.wrQLenPdf::50                      0                       # What write queue length does an incoming req see
system.mem_ctrls.wrQLenPdf::51                      0                       # What write queue length does an incoming req see
system.mem_ctrls.wrQLenPdf::52                      0                       # What write queue length does an incoming req see
system.mem_ctrls.wrQLenPdf::53                      0                       # What write queue length does an incoming req see
system.mem_ctrls.wrQLenPdf::54                      0                       # What write queue length does an incoming req see
system.mem_ctrls.wrQLenPdf::55                      0                       # What write queue length does an incoming req see
system.mem_ctrls.wrQLenPdf::56                      0                       # What write queue length does an incoming req see
system.mem_ctrls.wrQLenPdf::57                      0                       # What write queue length does an incoming req see
system.mem_ctrls.wrQLenPdf::58                      0                       # What write queue length does an incoming req see
system.mem_ctrls.wrQLenPdf::59                      0                       # What write queue length does an incoming req see
system.mem_ctrls.wrQLenPdf::60                      0                       # What write queue length does an incoming req see
system.mem_ctrls.wrQLenPdf::61                      0                       # What write queue length does an incoming req see
system.mem_ctrls.wrQLenPdf::62                      0                       # What write queue length does an incoming req see
system.mem_ctrls.wrQLenPdf::63                      0                       # What write queue length does an incoming req see
system.mem_ctrls.bytesPerActivate::samples        81552                       # Bytes accessed per row activation
system.mem_ctrls.bytesPerActivate::mean    208.451246                       # Bytes accessed per row activation
system.mem_ctrls.bytesPerActivate::gmean   140.318565                       # Bytes accessed per row activation
system.mem_ctrls.bytesPerActivate::stdev   224.830187                       # Bytes accessed per row activation
system.mem_ctrls.bytesPerActivate::0-127        34389     42.17%     42.17% # Bytes accessed per row activation
system.mem_ctrls.bytesPerActivate::128-255        24436     29.96%     72.13% # Bytes accessed per row activation
system.mem_ctrls.bytesPerActivate::256-383        10029     12.30%     84.43% # Bytes accessed per row activation
system.mem_ctrls.bytesPerActivate::384-511         4587      5.62%     90.05% # Bytes accessed per row activation
system.mem_ctrls.bytesPerActivate::512-639         2305      2.83%     92.88% # Bytes accessed per row activation
system.mem_ctrls.bytesPerActivate::640-767         1512      1.85%     94.73% # Bytes accessed per row activation
system.mem_ctrls.bytesPerActivate::768-895          931      1.14%     95.88% # Bytes accessed per row activation
system.mem_ctrls.bytesPerActivate::896-1023          582      0.71%     96.59% # Bytes accessed per row activation
system.mem_ctrls.bytesPerActivate::1024-1151         2781      3.41%    100.00% # Bytes accessed per row activation
system.mem_ctrls.bytesPerActivate::total        81552                       # Bytes accessed per row activation
system.mem_ctrls.rdPerTurnAround::samples         7322                       # Reads before turning the bus around for writes
system.mem_ctrls.rdPerTurnAround::mean      20.029500                       # Reads before turning the bus around for writes
system.mem_ctrls.rdPerTurnAround::gmean     18.417302                       # Reads before turning the bus around for writes
system.mem_ctrls.rdPerTurnAround::stdev     12.728124                       # Reads before turning the bus around for writes
system.mem_ctrls.rdPerTurnAround::0-15           1281     17.50%     17.50% # Reads before turning the bus around for writes
system.mem_ctrls.rdPerTurnAround::16-31          5559     75.92%     93.42% # Reads before turning the bus around for writes
system.mem_ctrls.rdPerTurnAround::32-47           288      3.93%     97.35% # Reads before turning the bus around for writes
system.mem_ctrls.rdPerTurnAround::48-63            94      1.28%     98.63% # Reads before turning the bus around for writes
system.mem_ctrls.rdPerTurnAround::64-79            39      0.53%     99.17% # Reads before turning the bus around for writes
system.mem_ctrls.rdPerTurnAround::80-95            21      0.29%     99.45% # Reads before turning the bus around for writes
system.mem_ctrls.rdPerTurnAround::96-111           12      0.16%     99.62% # Reads before turning the bus around for writes
system.mem_ctrls.rdPerTurnAround::112-127           10      0.14%     99.75% # Reads before turning the bus around for writes
system.mem_ctrls.rdPerTurnAround::128-143            9      0.12%     99.88% # Reads before turning the bus around for writes
system.mem_ctrls.rdPerTurnAround::144-159            5      0.07%     99.95% # Reads before turning the bus around for writes
system.mem_ctrls.rdPerTurnAround::160-175            2      0.03%     99.97% # Reads before turning the bus around for writes
system.mem_ctrls.rdPerTurnAround::256-271            1      0.01%     99.99% # Reads before turning the bus around for writes
system.mem_ctrls.rdPerTurnAround::400-415            1      0.01%    100.00% # Reads before turning the bus around for writes
system.mem_ctrls.rdPerTurnAround::total          7322                       # Reads before turning the bus around for writes
system.mem_ctrls.wrPerTurnAround::samples         7322                       # Writes before turning the bus around for reads
system.mem_ctrls.wrPerTurnAround::mean      16.251434                       # Writes before turning the bus around for reads
system.mem_ctrls.wrPerTurnAround::gmean     16.234817                       # Writes before turning the bus around for reads
system.mem_ctrls.wrPerTurnAround::stdev      0.769955                       # Writes before turning the bus around for reads
system.mem_ctrls.wrPerTurnAround::16             6522     89.07%     89.07% # Writes before turning the bus around for reads
system.mem_ctrls.wrPerTurnAround::17               98      1.34%     90.41% # Writes before turning the bus around for reads
system.mem_ctrls.wrPerTurnAround::18              452      6.17%     96.59% # Writes before turning the bus around for reads
system.mem_ctrls.wrPerTurnAround::19              171      2.34%     98.92% # Writes before turning the bus around for reads
system.mem_ctrls.wrPerTurnAround::20               71      0.97%     99.89% # Writes before turning the bus around for reads
system.mem_ctrls.wrPerTurnAround::21                6      0.08%     99.97% # Writes before turning the bus around for reads
system.mem_ctrls.wrPerTurnAround::22                2      0.03%    100.00% # Writes before turning the bus around for reads
system.mem_ctrls.wrPerTurnAround::total          7322                       # Writes before turning the bus around for reads
system.mem_ctrls.bytesReadDRAM                9386176                       # Total number of bytes read from DRAM
system.mem_ctrls.bytesReadWrQ                  657920                       # Total number of bytes read from write queue
system.mem_ctrls.bytesWritten                 7615552                       # Total number of bytes written to DRAM
system.mem_ctrls.bytesReadSys                10044096                       # Total read bytes from the system interface side
system.mem_ctrls.bytesWrittenSys              7755968                       # Total written bytes from the system interface side
system.mem_ctrls.avgRdBW                       793.68                       # Average DRAM read bandwidth in MiByte/s
system.mem_ctrls.avgWrBW                       643.96                       # Average achieved write bandwidth in MiByte/s
system.mem_ctrls.avgRdBWSys                    849.31                       # Average system read bandwidth in MiByte/s
system.mem_ctrls.avgWrBWSys                    655.83                       # Average system write bandwidth in MiByte/s
system.mem_ctrls.peakBW                      12800.00                       # Theoretical peak bandwidth in MiByte/s
system.mem_ctrls.busUtil                        11.23                       # Data bus utilization in percentage
system.mem_ctrls.busUtilRead                     6.20                       # Data bus utilization in percentage for reads
system.mem_ctrls.busUtilWrite                    5.03                       # Data bus utilization in percentage for writes
system.mem_ctrls.totGap                   11826126500                       # Total gap between requests
system.mem_ctrls.avgGap                      42520.75                       # Average gap between requests
system.mem_ctrls.masterReadBytes::.cpu.inst      4947648                       # Per-master bytes read from memory
system.mem_ctrls.masterReadBytes::.cpu.data      4438528                       # Per-master bytes read from memory
system.mem_ctrls.masterWriteBytes::.writebacks      7615552                       # Per-master bytes write to memory
system.mem_ctrls.masterReadRate::.cpu.inst 418365718.324711680412                       # Per-master bytes read from memory rate (Bytes/sec)
system.mem_ctrls.masterReadRate::.cpu.data 375315292.240746676922                       # Per-master bytes read from memory rate (Bytes/sec)
[...]
system.cpu.icache.tags.occ_blocks::.cpu.inst          512                       # Average occupied blocks per requestor
system.cpu.icache.tags.occ_percent::.cpu.inst            1                       # Average percentage of cache occupancy
system.cpu.icache.tags.occ_percent::total            1                       # Average percentage of cache occupancy
system.cpu.icache.tags.occ_task_id_blocks::1024          512                       # Occupied blocks per task id
system.cpu.icache.tags.age_task_id_blocks_1024::0           66                       # Occupied blocks per task id
system.cpu.icache.tags.age_task_id_blocks_1024::1          232                       # Occupied blocks per task id
system.cpu.icache.tags.age_task_id_blocks_1024::2          212                       # Occupied blocks per task id
system.cpu.icache.tags.age_task_id_blocks_1024::3            2                       # Occupied blocks per task id
system.cpu.icache.tags.occ_task_id_percent::1024            1                       # Percentage of cache occupancy per task id
system.cpu.icache.tags.tag_accesses         253088648                       # Number of tag accesses
system.cpu.icache.tags.data_accesses        253088648                       # Number of data accesses
system.cpu.dcache.pwrStateResidencyTicks::UNDEFINED 518383146500                       # Cumulative time (in ticks) in various power states
system.cpu.dcache.demand_hits::.cpu.data    127743933                       # number of demand (read+write) hits
system.cpu.dcache.demand_hits::total        127743933                       # number of demand (read+write) hits
system.cpu.dcache.overall_hits::.cpu.data    127743933                       # number of overall hits
system.cpu.dcache.overall_hits::total       127743933                       # number of overall hits
system.cpu.dcache.demand_misses::.cpu.data      4440586                       # number of demand (read+write) misses
system.cpu.dcache.demand_misses::total        4440586                       # number of demand (read+write) misses
system.cpu.dcache.overall_misses::.cpu.data      4440586                       # number of overall misses
system.cpu.dcache.overall_misses::total       4440586                       # number of overall misses
system.cpu.dcache.demand_miss_latency::.cpu.data 268075246500                       # number of demand (read+write) miss cycles
system.cpu.dcache.demand_miss_latency::total 268075246500                       # number of demand (read+write) miss cycles
system.cpu.dcache.overall_miss_latency::.cpu.data 268075246500                       # number of overall miss cycles
system.cpu.dcache.overall_miss_latency::total 268075246500                       # number of overall miss cycles
system.cpu.dcache.demand_accesses::.cpu.data    132184519                       # number of demand (read+write) accesses
system.cpu.dcache.demand_accesses::total    132184519                       # number of demand (read+write) accesses
system.cpu.dcache.overall_accesses::.cpu.data    132184519                       # number of overall (read+write) accesses
system.cpu.dcache.overall_accesses::total    132184519                       # number of overall (read+write) accesses
system.cpu.dcache.demand_miss_rate::.cpu.data     0.033594                       # miss rate for demand accesses
system.cpu.dcache.demand_miss_rate::total     0.033594                       # miss rate for demand accesses
system.cpu.dcache.overall_miss_rate::.cpu.data     0.033594                       # miss rate for overall accesses
system.cpu.dcache.overall_miss_rate::total     0.033594                       # miss rate for overall accesses
system.cpu.dcache.demand_avg_miss_latency::.cpu.data 60369.340105                       # average overall miss latency
system.cpu.dcache.demand_avg_miss_latency::total 60369.340105                       # average overall miss latency
system.cpu.dcache.overall_avg_miss_latency::.cpu.data 60369.340105                       # average overall miss latency
system.cpu.dcache.overall_avg_miss_latency::total 60369.340105                       # average overall miss latency
system.cpu.dcache.blocked_cycles::no_mshrs            0                       # number of cycles access was blocked
system.cpu.dcache.blocked_cycles::no_targets            0                       # number of cycles access was blocked
system.cpu.dcache.blocked::no_mshrs                 0                       # number of cycles access was blocked
system.cpu.dcache.blocked::no_targets               0                       # number of cycles access was blocked
system.cpu.dcache.avg_blocked_cycles::no_mshrs          nan                       # average number of cycles each access was blocked
system.cpu.dcache.avg_blocked_cycles::no_targets          nan                       # average number of cycles each access was blocked
system.cpu.dcache.writebacks::.writebacks      1919077                       # number of writebacks
system.cpu.dcache.writebacks::total           1919077                       # number of writebacks
system.cpu.dcache.demand_mshr_hits::.cpu.data      1242964                       # number of demand (read+write) MSHR hits
system.cpu.dcache.demand_mshr_hits::total      1242964                       # number of demand (read+write) MSHR hits
system.cpu.dcache.overall_mshr_hits::.cpu.data      1242964                       # number of overall MSHR hits
system.cpu.dcache.overall_mshr_hits::total      1242964                       # number of overall MSHR hits
system.cpu.dcache.demand_mshr_misses::.cpu.data      3197622                       # number of demand (read+write) MSHR misses
system.cpu.dcache.demand_mshr_misses::total      3197622                       # number of demand (read+write) MSHR misses
system.cpu.dcache.overall_mshr_misses::.cpu.data      3197622                       # number of overall MSHR misses
system.cpu.dcache.overall_mshr_misses::total      3197622                       # number of overall MSHR misses
system.cpu.dcache.overall_mshr_uncacheable_misses::.cpu.data         1200                       # number of overall MSHR uncacheable misses
system.cpu.dcache.overall_mshr_uncacheable_misses::total         1200                       # number of overall MSHR uncacheable misses
system.cpu.dcache.demand_mshr_miss_latency::.cpu.data 187139411000                       # number of demand (read+write) MSHR miss cycles
system.cpu.dcache.demand_mshr_miss_latency::total 187139411000                       # number of demand (read+write) MSHR miss cycles
system.cpu.dcache.overall_mshr_miss_latency::.cpu.data 187139411000                       # number of overall MSHR miss cycles
system.cpu.dcache.overall_mshr_miss_latency::total 187139411000                       # number of overall MSHR miss cycles
system.cpu.dcache.overall_mshr_uncacheable_latency::.cpu.data     49627000                       # number of overall MSHR uncacheable cycles
system.cpu.dcache.overall_mshr_uncacheable_latency::total     49627000                       # number of overall MSHR uncacheable cycles
system.cpu.dcache.demand_mshr_miss_rate::.cpu.data     0.024191                       # mshr miss rate for demand accesses
system.cpu.dcache.demand_mshr_miss_rate::total     0.024191                       # mshr miss rate for demand accesses
system.cpu.dcache.overall_mshr_miss_rate::.cpu.data     0.024191                       # mshr miss rate for overall accesses
system.cpu.dcache.overall_mshr_miss_rate::total     0.024191                       # mshr miss rate for overall accesses
system.cpu.dcache.demand_avg_mshr_miss_latency::.cpu.data 58524.556999                       # average overall mshr miss latency
system.cpu.dcache.demand_avg_mshr_miss_latency::total 58524.556999                       # average overall mshr miss latency
system.cpu.dcache.overall_avg_mshr_miss_latency::.cpu.data 58524.556999                       # average overall mshr miss latency
system.cpu.dcache.overall_avg_mshr_miss_latency::total 58524.556999                       # average overall mshr miss latency
system.cpu.dcache.overall_avg_mshr_uncacheable_latency::.cpu.data 41355.833333                       # average overall mshr uncacheable latency
system.cpu.dcache.overall_avg_mshr_uncacheable_latency::total 41355.833333                       # average overall mshr uncacheable latency
system.cpu.dcache.replacements                3200997                       # number of replacements
system.cpu.dcache.ReadReq_hits::.cpu.data     87913489                       # number of ReadReq hits
system.cpu.dcache.ReadReq_hits::total        87913489                       # number of ReadReq hits
system.cpu.dcache.ReadReq_misses::.cpu.data      1926674                       # number of ReadReq misses
system.cpu.dcache.ReadReq_misses::total       1926674                       # number of ReadReq misses
system.cpu.dcache.ReadReq_miss_latency::.cpu.data 111833903500                       # number of ReadReq miss cycles
system.cpu.dcache.ReadReq_miss_latency::total 111833903500                       # number of ReadReq miss cycles
system.cpu.dcache.ReadReq_accesses::.cpu.data     89840163                       # number of ReadReq accesses(hits+misses)
system.cpu.dcache.ReadReq_accesses::total     89840163                       # number of ReadReq accesses(hits+misses)
system.cpu.dcache.ReadReq_miss_rate::.cpu.data     0.021446                       # miss rate for ReadReq accesses
system.cpu.dcache.ReadReq_miss_rate::total     0.021446                       # miss rate for ReadReq accesses
system.cpu.dcache.ReadReq_avg_miss_latency::.cpu.data 58045.057700                       # average ReadReq miss latency
system.cpu.dcache.ReadReq_avg_miss_latency::total 58045.057700                       # average ReadReq miss latency
system.cpu.dcache.ReadReq_mshr_hits::.cpu.data       107501                       # number of ReadReq MSHR hits
system.cpu.dcache.ReadReq_mshr_hits::total       107501                       # number of ReadReq MSHR hits
system.cpu.dcache.ReadReq_mshr_misses::.cpu.data      1819173                       # number of ReadReq MSHR misses
system.cpu.dcache.ReadReq_mshr_misses::total      1819173                       # number of ReadReq MSHR misses
system.cpu.dcache.ReadReq_mshr_uncacheable::.cpu.data          283                       # number of ReadReq MSHR uncacheable
system.cpu.dcache.ReadReq_mshr_uncacheable::total          283                       # number of ReadReq MSHR uncacheable
system.cpu.dcache.ReadReq_mshr_miss_latency::.cpu.data 103754986500                       # number of ReadReq MSHR miss cycles
system.cpu.dcache.ReadReq_mshr_miss_latency::total 103754986500                       # number of ReadReq MSHR miss cycles
system.cpu.dcache.ReadReq_mshr_uncacheable_latency::.cpu.data     49627000                       # number of ReadReq MSHR uncacheable cycles
system.cpu.dcache.ReadReq_mshr_uncacheable_latency::total     49627000                       # number of ReadReq MSHR uncacheable cycles
system.cpu.dcache.ReadReq_mshr_miss_rate::.cpu.data     0.020249                       # mshr miss rate for ReadReq accesses
system.cpu.dcache.ReadReq_mshr_miss_rate::total     0.020249                       # mshr miss rate for ReadReq accesses
system.cpu.dcache.ReadReq_avg_mshr_miss_latency::.cpu.data 57034.150408                       # average ReadReq mshr miss latency
system.cpu.dcache.ReadReq_avg_mshr_miss_latency::total 57034.150408                       # average ReadReq mshr miss latency
system.cpu.dcache.ReadReq_avg_mshr_uncacheable_latency::.cpu.data 175360.424028                       # average ReadReq mshr uncacheable latency
system.cpu.dcache.ReadReq_avg_mshr_uncacheable_latency::total 175360.424028                       # average ReadReq mshr uncacheable latency
system.cpu.dcache.WriteReq_hits::.cpu.data     39830444                       # number of WriteReq hits
system.cpu.dcache.WriteReq_hits::total       39830444                       # number of WriteReq hits
system.cpu.dcache.WriteReq_misses::.cpu.data      2513912                       # number of WriteReq misses
system.cpu.dcache.WriteReq_misses::total      2513912                       # number of WriteReq misses
system.cpu.dcache.WriteReq_miss_latency::.cpu.data 156241343000                       # number of WriteReq miss cycles
system.cpu.dcache.WriteReq_miss_latency::total 156241343000                       # number of WriteReq miss cycles
system.cpu.dcache.WriteReq_accesses::.cpu.data     42344356                       # number of WriteReq accesses(hits+misses)
system.cpu.dcache.WriteReq_accesses::total     42344356                       # number of WriteReq accesses(hits+misses)
system.cpu.dcache.WriteReq_miss_rate::.cpu.data     0.059368                       # miss rate for WriteReq accesses
system.cpu.dcache.WriteReq_miss_rate::total     0.059368                       # miss rate for WriteReq accesses
system.cpu.dcache.WriteReq_avg_miss_latency::.cpu.data 62150.681090                       # average WriteReq miss latency
system.cpu.dcache.WriteReq_avg_miss_latency::total 62150.681090                       # average WriteReq miss latency
system.cpu.dcache.WriteReq_mshr_hits::.cpu.data      1135463                       # number of WriteReq MSHR hits
system.cpu.dcache.WriteReq_mshr_hits::total      1135463                       # number of WriteReq MSHR hits
system.cpu.dcache.WriteReq_mshr_misses::.cpu.data      1378449                       # number of WriteReq MSHR misses
system.cpu.dcache.WriteReq_mshr_misses::total      1378449                       # number of WriteReq MSHR misses
system.cpu.dcache.WriteReq_mshr_uncacheable::.cpu.data          917                       # number of WriteReq MSHR uncacheable
system.cpu.dcache.WriteReq_mshr_uncacheable::total          917                       # number of WriteReq MSHR uncacheable
system.cpu.dcache.WriteReq_mshr_miss_latency::.cpu.data  83384424500                       # number of WriteReq MSHR miss cycles
system.cpu.dcache.WriteReq_mshr_miss_latency::total  83384424500                       # number of WriteReq MSHR miss cycles
system.cpu.dcache.WriteReq_mshr_miss_rate::.cpu.data     0.032553                       # mshr miss rate for WriteReq accesses
system.cpu.dcache.WriteReq_mshr_miss_rate::total     0.032553                       # mshr miss rate for WriteReq accesses
system.cpu.dcache.WriteReq_avg_mshr_miss_latency::.cpu.data 60491.483181                       # average WriteReq mshr miss latency
system.cpu.dcache.WriteReq_avg_mshr_miss_latency::total 60491.483181                       # average WriteReq mshr miss latency
system.cpu.dcache.LoadLockedReq_hits::.cpu.data        79356                       # number of LoadLockedReq hits
system.cpu.dcache.LoadLockedReq_hits::total        79356                       # number of LoadLockedReq hits
system.cpu.dcache.LoadLockedReq_misses::.cpu.data         3378                       # number of LoadLockedReq misses
system.cpu.dcache.LoadLockedReq_misses::total         3378                       # number of LoadLockedReq misses
system.cpu.dcache.LoadLockedReq_miss_latency::.cpu.data    260698500                       # number of LoadLockedReq miss cycles
system.cpu.dcache.LoadLockedReq_miss_latency::total    260698500                       # number of LoadLockedReq miss cycles
system.cpu.dcache.LoadLockedReq_accesses::.cpu.data        82734                       # number of LoadLockedReq accesses(hits+misses)
system.cpu.dcache.LoadLockedReq_accesses::total        82734                       # number of LoadLockedReq accesses(hits+misses)
system.cpu.dcache.LoadLockedReq_miss_rate::.cpu.data     0.040830                       # miss rate for LoadLockedReq accesses
system.cpu.dcache.LoadLockedReq_miss_rate::total     0.040830                       # miss rate for LoadLockedReq accesses
system.cpu.dcache.LoadLockedReq_avg_miss_latency::.cpu.data 77175.399645                       # average LoadLockedReq miss latency
system.cpu.dcache.LoadLockedReq_avg_miss_latency::total 77175.399645                       # average LoadLockedReq miss latency
system.cpu.dcache.LoadLockedReq_mshr_hits::.cpu.data            1                       # number of LoadLockedReq MSHR hits
system.cpu.dcache.LoadLockedReq_mshr_hits::total            1                       # number of LoadLockedReq MSHR hits
system.cpu.dcache.LoadLockedReq_mshr_misses::.cpu.data         3377                       # number of LoadLockedReq MSHR misses
system.cpu.dcache.LoadLockedReq_mshr_misses::total         3377                       # number of LoadLockedReq MSHR misses
system.cpu.dcache.LoadLockedReq_mshr_miss_latency::.cpu.data    257264500                       # number of LoadLockedReq MSHR miss cycles
system.cpu.dcache.LoadLockedReq_mshr_miss_latency::total    257264500                       # number of LoadLockedReq MSHR miss cycles
system.cpu.dcache.LoadLockedReq_mshr_miss_rate::.cpu.data     0.040818                       # mshr miss rate for LoadLockedReq accesses
system.cpu.dcache.LoadLockedReq_mshr_miss_rate::total     0.040818                       # mshr miss rate for LoadLockedReq accesses
system.cpu.dcache.LoadLockedReq_avg_mshr_miss_latency::.cpu.data 76181.374001                       # average LoadLockedReq mshr miss latency
system.cpu.dcache.LoadLockedReq_avg_mshr_miss_latency::total 76181.374001                       # average LoadLockedReq mshr miss latency
system.cpu.dcache.StoreCondReq_hits::.cpu.data        82613                       # number of StoreCondReq hits
system.cpu.dcache.StoreCondReq_hits::total        82613                       # number of StoreCondReq hits
system.cpu.dcache.StoreCondReq_accesses::.cpu.data        82613                       # number of StoreCondReq accesses(hits+misses)
system.cpu.dcache.StoreCondReq_accesses::total        82613                       # number of StoreCondReq accesses(hits+misses)
system.cpu.dcache.tags.pwrStateResidencyTicks::UNDEFINED 518383146500                       # Cumulative time (in ticks) in various power states
system.cpu.dcache.tags.tagsinuse                 1024                       # Cycle average of tags in use
system.cpu.dcache.tags.total_refs           131367912                       # Total number of references to valid blocks.
system.cpu.dcache.tags.sampled_refs           3202021                       # Sample count of references to valid blocks.
system.cpu.dcache.tags.avg_refs             41.026562                       # Average number of references to valid blocks.
system.cpu.dcache.tags.warmup_cycle                 0                       # Cycle when the warmup percentage was hit.
system.cpu.dcache.tags.occ_blocks::.cpu.data         1024                       # Average occupied blocks per requestor
system.cpu.dcache.tags.occ_percent::.cpu.data            1                       # Average percentage of cache occupancy
system.cpu.dcache.tags.occ_percent::total            1                       # Average percentage of cache occupancy
system.cpu.dcache.tags.occ_task_id_blocks::1024         1024                       # Occupied blocks per task id
system.cpu.dcache.tags.age_task_id_blocks_1024::0           74                       # Occupied blocks per task id
system.cpu.dcache.tags.age_task_id_blocks_1024::1          254                       # Occupied blocks per task id
system.cpu.dcache.tags.age_task_id_blocks_1024::2          696                       # Occupied blocks per task id
system.cpu.dcache.tags.occ_task_id_percent::1024            1                       # Percentage of cache occupancy per task id
system.cpu.dcache.tags.tag_accesses         267900729                       # Number of tag accesses
system.cpu.dcache.tags.data_accesses        267900729                       # Number of data accesses

---------- End Simulation Statistics   ----------
