
---------- Begin Simulation Statistics ----------
final_tick                               2541833734500                       # Number of ticks from beginning of simulation (restored from checkpoints and never reset)
host_inst_rate                                 213679                       # Simulator instruction rate (inst/s)
host_mem_usage                                 741764                       # Number of bytes of host memory used
host_op_rate                                   213677                       # Simulator op (including micro ops) rate (op/s)
host_seconds                                    19.62                       # Real time elapsed on the host
host_tick_rate                              602621082                       # Simulator tick rate (ticks/s)
sim_freq                                 1000000000000                       # Frequency of simulated ticks
sim_insts                                     4192503                       # Number of instructions simulated
sim_ops                                       4192503                       # Number of ops (including micro ops) simulated
sim_seconds                                  0.011824                       # Number of seconds simulated
sim_ticks                                 11823889500                       # Number of ticks simulated
system.cpu.branchPred.BTBCorrect                    0                       # Number of correct BTB predictions (this stat may not work properly.
system.cpu.branchPred.BTBHitPct             44.700231                       # BTB Hit Percentage
system.cpu.branchPred.BTBHits                  378269                       # Number of BTB hits
system.cpu.branchPred.BTBLookups               846235                       # Number of BTB lookups
system.cpu.branchPred.RASInCorrect               2413                       # Number of incorrect RAS predictions.
system.cpu.branchPred.condIncorrect             75404                       # Number of conditional branches incorrect
system.cpu.branchPred.condPredicted            802627                       # Number of conditional branches predicted
system.cpu.branchPred.indirectHits              52799                       # Number of indirect target hits.
system.cpu.branchPred.indirectLookups          278015                       # Number of indirect predictor lookups.
system.cpu.branchPred.indirectMisses           225216                       # Number of indirect misses.
system.cpu.branchPred.lookups                  974776                       # Number of BP lookups
system.cpu.branchPred.usedRAS                   64022                       # Number of times the RAS was used to get a target.
system.cpu.branchPredindirectMispredicted        26613                       # Number of mispredicted indirect branches.
system.cpu.committedInsts                     4192503                       # Number of instructions committed
system.cpu.committedOps                       4192503                       # Number of ops (including micro ops) committed
system.cpu.cpi                               5.637295                       # CPI: cycles per instruction
system.cpu.discardedOps                        189390                       # Number of ops (including micro ops) which were discarded before commit
system.cpu.dtb.data_accesses                   606320                       # DTB accesses
system.cpu.dtb.data_acv                           131                       # DTB access violations
system.cpu.dtb.data_hits                      1450426                       # DTB hits
system.cpu.dtb.data_misses                       7671                       # DTB misses
system.cpu.dtb.fetch_accesses                       0                       # ITB accesses
system.cpu.dtb.fetch_acv                            0                       # ITB acv
system.cpu.dtb.fetch_hits                           0                       # ITB hits
system.cpu.dtb.fetch_misses                         0                       # ITB misses
system.cpu.dtb.read_accesses                   405150                       # DTB read accesses
system.cpu.dtb.read_acv                            43                       # DTB read access violations
system.cpu.dtb.read_hits                       848257                       # DTB read hits
system.cpu.dtb.read_misses                       6883                       # DTB read misses
system.cpu.dtb.write_accesses                  201170                       # DTB write accesses
system.cpu.dtb.write_acv                           88                       # DTB write access violations
system.cpu.dtb.write_hits                      602169                       # DTB write hits
system.cpu.dtb.write_misses                       788                       # DTB write misses
system.cpu.fetch2.amo_instructions                  0                       # Number of memory atomic instructions successfully decoded
system.cpu.fetch2.fp_instructions               18018                       # Number of floating point instructions successfully decoded
system.cpu.fetch2.int_instructions            3371645                       # Number of integer instructions successfully decoded
system.cpu.fetch2.load_instructions           1027087                       # Number of memory load instructions successfully decoded
system.cpu.fetch2.store_instructions           658473                       # Number of memory store instructions successfully decoded
system.cpu.fetch2.vec_instructions                  0                       # Number of SIMD instructions successfully decoded
system.cpu.idleCycles                        16740044                       # Total number of cycles that the object has spent stopped
system.cpu.ipc                               0.177390                       # IPC: instructions per cycle
system.cpu.itb.data_accesses                        0                       # DTB accesses
system.cpu.itb.data_acv                             0                       # DTB access violations
system.cpu.itb.data_hits                            0                       # DTB hits
system.cpu.itb.data_misses                          0                       # DTB misses
system.cpu.itb.fetch_accesses                  954630                       # ITB accesses
system.cpu.itb.fetch_acv                          515                       # ITB acv
system.cpu.itb.fetch_hits                      947516                       # ITB hits
system.cpu.itb.fetch_misses                      7114                       # ITB misses
system.cpu.itb.read_accesses                        0                       # DTB read accesses
system.cpu.itb.read_acv                             0                       # DTB read access violations
system.cpu.itb.read_hits                            0                       # DTB read hits
system.cpu.itb.read_misses                          0                       # DTB read misses
system.cpu.itb.write_accesses                       0                       # DTB write accesses
system.cpu.itb.write_acv                            0                       # DTB write access violations
system.cpu.itb.write_hits                           0                       # DTB write hits
system.cpu.itb.write_misses                         0                       # DTB write misses
system.cpu.kern.callpal::swpctx                   574      9.50%      9.50% # number of callpals executed
system.cpu.kern.callpal::tbi                       25      0.41%      9.91% # number of callpals executed
system.cpu.kern.callpal::swpipl                  4179     69.17%     79.08% # number of callpals executed
system.cpu.kern.callpal::rdps                      48      0.79%     79.87% # number of callpals executed
system.cpu.kern.callpal::wrusp                      4      0.07%     79.94% # number of callpals executed
system.cpu.kern.callpal::rdusp                      3      0.05%     79.99% # number of callpals executed
system.cpu.kern.callpal::rti                      896     14.83%     94.82% # number of callpals executed
system.cpu.kern.callpal::callsys                  235      3.89%     98.71% # number of callpals executed
system.cpu.kern.callpal::imb                       78      1.29%    100.00% # number of callpals executed
system.cpu.kern.callpal::total                   6042                       # number of callpals executed
system.cpu.kern.inst.arm                            0                       # number of arm instructions executed
system.cpu.kern.inst.hwrei                      14385                       # number of hwrei instructions executed
system.cpu.kern.inst.quiesce                        9                       # number of quiesce instructions executed
system.cpu.kern.ipl_count::0                     2414     47.41%     47.41% # number of times we switched to this ipl
system.cpu.kern.ipl_count::21                       5      0.10%     47.51% # number of times we switched to this ipl
system.cpu.kern.ipl_count::22                      12      0.24%     47.74% # number of times we switched to this ipl
system.cpu.kern.ipl_count::31                    2661     52.26%    100.00% # number of times we switched to this ipl
system.cpu.kern.ipl_count::total                 5092                       # number of times we switched to this ipl
system.cpu.kern.ipl_good::0                      2401     49.82%     49.82% # number of times we switched to this ipl from a different ipl
system.cpu.kern.ipl_good::21                        5      0.10%     49.93% # number of times we switched to this ipl from a different ipl
system.cpu.kern.ipl_good::22                       12      0.25%     50.18% # number of times we switched to this ipl from a different ipl
system.cpu.kern.ipl_good::31                     2401     49.82%    100.00% # number of times we switched to this ipl from a different ipl
system.cpu.kern.ipl_good::total                  4819                       # number of times we switched to this ipl from a different ipl
system.cpu.kern.ipl_ticks::0              10917846500     92.30%     92.30% # number of cycles we spent at this ipl
system.cpu.kern.ipl_ticks::21                 9362000      0.08%     92.38% # number of cycles we spent at this ipl
system.cpu.kern.ipl_ticks::22                17712500      0.15%     92.53% # number of cycles we spent at this ipl
system.cpu.kern.ipl_ticks::31               883314000      7.47%    100.00% # number of cycles we spent at this ipl
system.cpu.kern.ipl_ticks::total          11828235000                       # number of cycles we spent at this ipl
system.cpu.kern.ipl_used::0                  0.994615                       # fraction of swpipl calls that actually changed the ipl
system.cpu.kern.ipl_used::21                        1                       # fraction of swpipl calls that actually changed the ipl
system.cpu.kern.ipl_used::22                        1                       # fraction of swpipl calls that actually changed the ipl
system.cpu.kern.ipl_used::31                 0.902292                       # fraction of swpipl calls that actually changed the ipl
system.cpu.kern.ipl_used::total              0.946386                       # fraction of swpipl calls that actually changed the ipl
system.cpu.kern.mode_good::kernel                 870                      
system.cpu.kern.mode_good::user                   870                      
system.cpu.kern.mode_good::idle                     0                      
system.cpu.kern.mode_switch::kernel              1470                       # number of protection mode switches
system.cpu.kern.mode_switch::user                 870                       # number of protection mode switches
system.cpu.kern.mode_switch::idle                   0                       # number of protection mode switches
system.cpu.kern.mode_switch_good::kernel     0.591837                       # fraction of useful protection mode switches
system.cpu.kern.mode_switch_good::user              1                       # fraction of useful protection mode switches
system.cpu.kern.mode_switch_good::idle            nan                       # fraction of useful protection mode switches
system.cpu.kern.mode_switch_good::total      0.743590                       # fraction of useful protection mode switches
system.cpu.kern.mode_ticks::kernel         7991157500     67.56%     67.56% # number of ticks spent at the given mode
system.cpu.kern.mode_ticks::user           3837077500     32.44%    100.00% # number of ticks spent at the given mode
system.cpu.kern.mode_ticks::idle                    0      0.00%    100.00% # number of ticks spent at the given mode
system.cpu.kern.swap_context                      574                       # number of times the context was actually changed
system.cpu.numCycles                         23634376                       # number of cpu cycles simulated
system.cpu.numFetchSuspends                         9                       # Number of times Execute suspended instruction fetching
system.cpu.numWorkItemsCompleted                    0                       # number of work items this cpu completed
system.cpu.numWorkItemsStarted                      0                       # number of work items this cpu started
system.cpu.op_class_0::No_OpClass               85382      2.04%      2.04% # Class of committed instruction
system.cpu.op_class_0::IntAlu                 2539464     60.57%     62.61% # Class of committed instruction
system.cpu.op_class_0::IntMult                   3673      0.09%     62.70% # Class of committed instruction
system.cpu.op_class_0::IntDiv                       0      0.00%     62.70% # Class of committed instruction
system.cpu.op_class_0::FloatAdd                  8286      0.20%     62.89% # Class of committed instruction
system.cpu.op_class_0::FloatCmp                     0      0.00%     62.89% # Class of committed instruction
system.cpu.op_class_0::FloatCvt                     0      0.00%     62.89% # Class of committed instruction
system.cpu.op_class_0::FloatMult                    0      0.00%     62.89% # Class of committed instruction
system.cpu.op_class_0::FloatMultAcc                 0      0.00%     62.89% # Class of committed instruction
system.cpu.op_class_0::FloatDiv                  1593      0.04%     62.93% # Class of committed instruction
system.cpu.op_class_0::FloatMisc                    0      0.00%     62.93% # Class of committed instruction
system.cpu.op_class_0::FloatSqrt                    0      0.00%     62.93% # Class of committed instruction
system.cpu.op_class_0::SimdAdd                      0      0.00%     62.93% # Class of committed instruction
system.cpu.op_class_0::SimdAddAcc                   0      0.00%     62.93% # Class of committed instruction
system.cpu.op_class_0::SimdAlu                      0      0.00%     62.93% # Class of committed instruction
system.cpu.op_class_0::SimdCmp                      0      0.00%     62.93% # Class of committed instruction
system.cpu.op_class_0::SimdCvt                      0      0.00%     62.93% # Class of committed instruction
system.cpu.op_class_0::SimdMisc                     0      0.00%     62.93% # Class of committed instruction
system.cpu.op_class_0::SimdMult                     0      0.00%     62.93% # Class of committed instruction
system.cpu.op_class_0::SimdMultAcc                  0      0.00%     62.93% # Class of committed instruction
system.cpu.op_class_0::SimdShift                    0      0.00%     62.93% # Class of committed instruction
system.cpu.op_class_0::SimdShiftAcc                 0      0.00%     62.93% # Class of committed instruction
system.cpu.op_class_0::SimdDiv                      0      0.00%     62.93% # Class of committed instruction
system.cpu.op_class_0::SimdSqrt                     0      0.00%     62.93% # Class of committed instruction
system.cpu.op_class_0::SimdFloatAdd                 0      0.00%     62.93% # Class of committed instruction
system.cpu.op_class_0::SimdFloatAlu                 0      0.00%     62.93% # Class of committed instruction
system.cpu.op_class_0::SimdFloatCmp                 0      0.00%     62.93% # Class of committed instruction
system.cpu.op_class_0::SimdFloatCvt                 0      0.00%     62.93% # Class of committed instruction
system.cpu.op_class_0::SimdFloatDiv                 0      0.00%     62.93% # Class of committed instruction
system.cpu.op_class_0::SimdFloatMisc                0      0.00%     62.93% # Class of committed instruction
system.cpu.op_class_0::SimdFloatMult                0      0.00%     62.93% # Class of committed instruction
system.cpu.op_class_0::SimdFloatMultAcc             0      0.00%     62.93% # Class of committed instruction
system.cpu.op_class_0::SimdFloatSqrt                0      0.00%     62.93% # Class of committed instruction
system.cpu.op_class_0::SimdReduceAdd                0      0.00%     62.93% # Class of committed instruction
system.cpu.op_class_0::SimdReduceAlu                0      0.00%     62.93% # Class of committed instruction
system.cpu.op_class_0::SimdReduceCmp                0      0.00%     62.93% # Class of committed instruction
system.cpu.op_class_0::SimdFloatReduceAdd            0      0.00%     62.93% # Class of committed instruction
system.cpu.op_class_0::SimdFloatReduceCmp            0      0.00%     62.93% # Class of committed instruction
system.cpu.op_class_0::SimdAes                      0      0.00%     62.93% # Class of committed instruction
system.cpu.op_class_0::SimdAesMix                   0      0.00%     62.93% # Class of committed instruction
system.cpu.op_class_0::SimdSha1Hash                 0      0.00%     62.93% # Class of committed instruction
system.cpu.op_class_0::SimdSha1Hash2                0      0.00%     62.93% # Class of committed instruction
system.cpu.op_class_0::SimdSha256Hash               0      0.00%     62.93% # Class of committed instruction
system.cpu.op_class_0::SimdSha256Hash2              0      0.00%     62.93% # Class of committed instruction
system.cpu.op_class_0::SimdShaSigma2                0      0.00%     62.93% # Class of committed instruction
system.cpu.op_class_0::SimdShaSigma3                0      0.00%     62.93% # Class of committed instruction
system.cpu.op_class_0::SimdPredAlu                  0      0.00%     62.93% # Class of committed instruction
system.cpu.op_class_0::MemRead                 838523     20.00%     82.93% # Class of committed instruction
system.cpu.op_class_0::MemWrite                592115     14.12%     97.06% # Class of committed instruction
system.cpu.op_class_0::FloatMemRead              9988      0.24%     97.29% # Class of committed instruction
system.cpu.op_class_0::FloatMemWrite             8788      0.21%     97.50% # Class of committed instruction
system.cpu.op_class_0::IprAccess               104691      2.50%    100.00% # Class of committed instruction
system.cpu.op_class_0::InstPrefetch                 0      0.00%    100.00% # Class of committed instruction
system.cpu.op_class_0::total                  4192503                       # Class of committed instruction
system.cpu.quiesceCycles                        13403                       # Total number of cycles that CPU has spent quiesced or waiting for an interrupt
system.cpu.tickCycles                         6894332                       # Number of cycles that the object actually ticked
system.disk0.dma_read_bytes                         0                       # Number of bytes transfered via DMA reads (not PRD).
system.disk0.dma_read_full_pages                    0                       # Number of full page size DMA reads (not PRD).
system.disk0.dma_read_txs                           0                       # Number of DMA read transactions (not PRD).
system.disk0.dma_write_bytes                    12288                       # Number of bytes transfered via DMA writes.
system.disk0.dma_write_full_pages                   0                       # Number of full page size DMA writes.
system.disk0.dma_write_txs                          3                       # Number of DMA write transactions.
system.disk2.dma_read_bytes                         0                       # Number of bytes transfered via DMA reads (not PRD).
system.disk2.dma_read_full_pages                    0                       # Number of full page size DMA reads (not PRD).
system.disk2.dma_read_txs                           0                       # Number of DMA read transactions (not PRD).
system.disk2.dma_write_bytes                        0                       # Number of bytes transfered via DMA writes.
system.disk2.dma_write_full_pages                   0                       # Number of full page size DMA writes.
system.disk2.dma_write_txs                          0                       # Number of DMA write transactions.
system.membus.snoop_filter.hit_multi_requests          441                       # Number of requests hitting in the snoop filter with multiple (>1) holders of the requested data.
system.membus.snoop_filter.hit_multi_snoops            0                       # Number of snoops hitting in the snoop filter with multiple (>1) holders of the requested data.
system.membus.snoop_filter.hit_single_requests       155603                       # Number of requests hitting in the snoop filter with a single holder of the requested data.
system.membus.snoop_filter.hit_single_snoops            0                       # Number of snoops hitting in the snoop filter with a single holder of the requested data.
system.membus.snoop_filter.tot_requests        312810                       # Total number of requests made to the snoop filter.
system.membus.snoop_filter.tot_snoops               0                       # Total number of snoops made to the snoop filter.
system.tsunami.ethernet.coalescedRxDesc           nan                       # average number of RxDesc's coalesced into each post
system.tsunami.ethernet.coalescedRxIdle           nan                       # average number of RxIdle's coalesced into each post
system.tsunami.ethernet.coalescedRxOk             nan                       # average number of RxOk's coalesced into each post
system.tsunami.ethernet.coalescedRxOrn            nan                       # average number of RxOrn's coalesced into each post
system.tsunami.ethernet.coalescedSwi              nan                       # average number of Swi's coalesced into each post
system.tsunami.ethernet.coalescedTotal            nan                       # average number of interrupts coalesced into each post
system.tsunami.ethernet.coalescedTxDesc           nan                       # average number of TxDesc's coalesced into each post
system.tsunami.ethernet.coalescedTxIdle           nan                       # average number of TxIdle's coalesced into each post
system.tsunami.ethernet.coalescedTxOk             nan                       # average number of TxOk's coalesced into each post
system.tsunami.ethernet.descDMAReads                0                       # Number of descriptors the device read w/ DMA
system.tsunami.ethernet.descDMAWrites               0                       # Number of descriptors the device wrote w/ DMA
system.tsunami.ethernet.descDmaReadBytes            0                       # number of descriptor bytes read w/ DMA
system.tsunami.ethernet.descDmaWriteBytes            0                       # number of descriptor bytes write w/ DMA
system.tsunami.ethernet.droppedPackets              0                       # number of packets dropped
system.tsunami.ethernet.postedInterrupts            0                       # number of posts to CPU
system.tsunami.ethernet.postedRxDesc                0                       # number of RxDesc interrupts posted to CPU
system.tsunami.ethernet.postedRxIdle                0                       # number of rxIdle interrupts posted to CPU
system.tsunami.ethernet.postedRxOk                  0                       # number of RxOk interrupts posted to CPU
system.tsunami.ethernet.postedRxOrn                 0                       # number of RxOrn posted to CPU
system.tsunami.ethernet.postedSwi                   0                       # number of software interrupts posted to CPU
system.tsunami.ethernet.postedTxDesc                0                       # number of TxDesc interrupts posted to CPU
system.tsunami.ethernet.postedTxIdle                0                       # number of TxIdle interrupts posted to CPU
system.tsunami.ethernet.postedTxOk                  0                       # number of TxOk interrupts posted to CPU
system.tsunami.ethernet.totalRxDesc                 0                       # total number of RxDesc written to ISR
system.tsunami.ethernet.totalRxIdle                 0                       # total number of RxIdle written to ISR
system.tsunami.ethernet.totalRxOk                   0                       # total number of RxOk written to ISR
system.tsunami.ethernet.totalRxOrn                  0                       # total number of RxOrn written to ISR
system.tsunami.ethernet.totalSwi                    0                       # total number of Swi written to ISR
system.tsunami.ethernet.totalTxDesc                 0                       # total number of TxDesc written to ISR
system.tsunami.ethernet.totalTxIdle                 0                       # total number of TxIdle written to ISR
system.tsunami.ethernet.totalTxOk                   0                       # total number of TxOk written to ISR
system.bridge.pwrStateResidencyTicks::UNDEFINED 2541833734500                       # Cumulative time (in ticks) in various power states
system.voltage_domain.voltage                       1                       # Voltage in Volts
system.iocache.pwrStateResidencyTicks::UNDEFINED 2541833734500                       # Cumulative time (in ticks) in various power states
system.iocache.demand_misses::.tsunami.ide          195                       # number of demand (read+write) misses
system.iocache.demand_misses::total               195                       # number of demand (read+write) misses
system.iocache.overall_misses::.tsunami.ide          195                       # number of overall misses
system.iocache.overall_misses::total              195                       # number of overall misses
system.iocache.demand_miss_latency::.tsunami.ide     22810457                       # number of demand (read+write) miss cycles
system.iocache.demand_miss_latency::total     22810457                       # number of demand (read+write) miss cycles
system.iocache.overall_miss_latency::.tsunami.ide     22810457                       # number of overall miss cycles
system.iocache.overall_miss_latency::total     22810457                       # number of overall miss cycles
system.iocache.demand_accesses::.tsunami.ide          195                       # number of demand (read+write) accesses
system.iocache.demand_accesses::total             195                       # number of demand (read+write) accesses
system.iocache.overall_accesses::.tsunami.ide          195                       # number of overall (read+write) accesses
system.iocache.overall_accesses::total            195                       # number of overall (read+write) accesses
system.iocache.demand_miss_rate::.tsunami.ide            1                       # miss rate for demand accesses
system.iocache.demand_miss_rate::total              1                       # miss rate for demand accesses
system.iocache.overall_miss_rate::.tsunami.ide            1                       # miss rate for overall accesses
system.iocache.overall_miss_rate::total             1                       # miss rate for overall accesses
system.iocache.demand_avg_miss_latency::.tsunami.ide 116976.702564                       # average overall miss latency
system.iocache.demand_avg_miss_latency::total 116976.702564                       # average overall miss latency
system.iocache.overall_avg_miss_latency::.tsunami.ide 116976.702564                       # average overall miss latency
system.iocache.overall_avg_miss_latency::total 116976.702564                       # average overall miss latency
system.iocache.blocked_cycles::no_mshrs             0                       # number of cycles access was blocked
system.iocache.blocked_cycles::no_targets            0                       # number of cycles access was blocked
system.iocache.blocked::no_mshrs                    0                       # number of cycles access was blocked
system.iocache.blocked::no_targets                  0                       # number of cycles access was blocked
system.iocache.avg_blocked_cycles::no_mshrs          nan                       # average number of cycles each access was blocked
system.iocache.avg_blocked_cycles::no_targets          nan                       # average number of cycles each access was blocked
system.iocache.writebacks::.writebacks            176                       # number of writebacks
system.iocache.writebacks::total                  176                       # number of writebacks
system.iocache.demand_mshr_misses::.tsunami.ide          195                       # number of demand (read+write) MSHR misses
system.iocache.demand_mshr_misses::total          195                       # number of demand (read+write) MSHR misses
system.iocache.overall_mshr_misses::.tsunami.ide          195                       # number of overall MSHR misses
system.iocache.overall_mshr_misses::total          195                       # number of overall MSHR misses
system.iocache.demand_mshr_miss_latency::.tsunami.ide     13047491                       # number of demand (read+write) MSHR miss cycles
system.iocache.demand_mshr_miss_latency::total     13047491                       # number of demand (read+write) MSHR miss cycles
system.iocache.overall_mshr_miss_latency::.tsunami.ide     13047491                       # number of overall MSHR miss cycles
system.iocache.overall_mshr_miss_latency::total     13047491                       # number of overall MSHR miss cycles
system.iocache.demand_mshr_miss_rate::.tsunami.ide            1                       # mshr miss rate for demand accesses
system.iocache.demand_mshr_miss_rate::total            1                       # mshr miss rate for demand accesses
system.iocache.overall_mshr_miss_rate::.tsunami.ide            1                       # mshr miss rate for overall accesses
system.iocache.overall_mshr_miss_rate::total            1                       # mshr miss rate for overall accesses
system.iocache.demand_avg_mshr_miss_latency::.tsunami.ide 66910.210256                       # average overall mshr miss latency
system.iocache.demand_avg_mshr_miss_latency::total 66910.210256                       # average overall mshr miss latency
system.iocache.overall_avg_mshr_miss_latency::.tsunami.ide 66910.210256                       # average overall mshr miss latency
system.iocache.overall_avg_mshr_miss_latency::total 66910.210256                       # average overall mshr miss latency
system.iocache.replacements                       179                       # number of replacements
system.iocache.ReadReq_misses::.tsunami.ide            3                       # number of ReadReq misses
system.iocache.ReadReq_misses::total                3                       # number of ReadReq misses
system.iocache.ReadReq_miss_latency::.tsunami.ide       349497                       # number of ReadReq miss cycles
system.iocache.ReadReq_miss_latency::total       349497                       # number of ReadReq miss cycles
system.iocache.ReadReq_accesses::.tsunami.ide            3                       # number of ReadReq accesses(hits+misses)
system.iocache.ReadReq_accesses::total              3                       # number of ReadReq accesses(hits+misses)
system.iocache.ReadReq_miss_rate::.tsunami.ide            1                       # miss rate for ReadReq accesses
system.iocache.ReadReq_miss_rate::total             1                       # miss rate for ReadReq accesses
system.iocache.ReadReq_avg_miss_latency::.tsunami.ide       116499                       # average ReadReq miss latency
system.iocache.ReadReq_avg_miss_latency::total       116499                       # average ReadReq miss latency
system.iocache.ReadReq_mshr_misses::.tsunami.ide            3                       # number of ReadReq MSHR misses
system.iocache.ReadReq_mshr_misses::total            3                       # number of ReadReq MSHR misses
system.iocache.ReadReq_mshr_miss_latency::.tsunami.ide       199497                       # number of ReadReq MSHR miss cycles
system.iocache.ReadReq_mshr_miss_latency::total       199497                       # number of ReadReq MSHR miss cycles
system.iocache.ReadReq_mshr_miss_rate::.tsunami.ide            1                       # mshr miss rate for ReadReq accesses
system.iocache.ReadReq_mshr_miss_rate::total            1                       # mshr miss rate for ReadReq accesses
system.iocache.ReadReq_avg_mshr_miss_latency::.tsunami.ide        66499                       # average ReadReq mshr miss latency
system.iocache.ReadReq_avg_mshr_miss_latency::total        66499                       # average ReadReq mshr miss latency
system.iocache.WriteLineReq_misses::.tsunami.ide          192                       # number of WriteLineReq misses
system.iocache.WriteLineReq_misses::total          192                       # number of WriteLineReq misses
system.iocache.WriteLineReq_miss_latency::.tsunami.ide     22460960                       # number of WriteLineReq miss cycles
system.iocache.WriteLineReq_miss_latency::total     22460960                       # number of WriteLineReq miss cycles
system.iocache.WriteLineReq_accesses::.tsunami.ide          192                       # number of WriteLineReq accesses(hits+misses)
system.iocache.WriteLineReq_accesses::total          192                       # number of WriteLineReq accesses(hits+misses)
system.iocache.WriteLineReq_miss_rate::.tsunami.ide            1                       # miss rate for WriteLineReq accesses
system.iocache.WriteLineReq_miss_rate::total            1                       # miss rate for WriteLineReq accesses
system.iocache.WriteLineReq_avg_miss_latency::.tsunami.ide 116984.166667                       # average WriteLineReq miss latency
system.iocache.WriteLineReq_avg_miss_latency::total 116984.166667                       # average WriteLineReq miss latency
system.iocache.WriteLineReq_mshr_misses::.tsunami.ide          192                       # number of WriteLineReq MSHR misses
system.iocache.WriteLineReq_mshr_misses::total          192                       # number of WriteLineReq MSHR misses
system.iocache.WriteLineReq_mshr_miss_latency::.tsunami.ide     12847994                       # number of WriteLineReq MSHR miss cycles
system.iocache.WriteLineReq_mshr_miss_latency::total     12847994                       # number of WriteLineReq MSHR miss cycles
system.iocache.WriteLineReq_mshr_miss_rate::.tsunami.ide            1                       # mshr miss rate for WriteLineReq accesses
system.iocache.WriteLineReq_mshr_miss_rate::total            1                       # mshr miss rate for WriteLineReq accesses
system.iocache.WriteLineReq_avg_mshr_miss_latency::.tsunami.ide 66916.635417                       # average WriteLineReq mshr miss latency
system.iocache.WriteLineReq_avg_mshr_miss_latency::total 66916.635417                       # average WriteLineReq mshr miss latency
system.iocache.tags.pwrStateResidencyTicks::UNDEFINED 2541833734500                       # Cumulative time (in ticks) in various power states
system.iocache.tags.tagsinuse                3.276432                       # Cycle average of tags in use
system.iocache.tags.total_refs                    179                       # Total number of references to valid blocks.
system.iocache.tags.sampled_refs                  179                       # Sample count of references to valid blocks.
system.iocache.tags.avg_refs                        1                       # Average number of references to valid blocks.
system.iocache.tags.warmup_cycle         2539411396000                       # Cycle when the warmup percentage was hit.
system.iocache.tags.occ_blocks::.tsunami.ide     3.276432                       # Average occupied blocks per requestor
system.iocache.tags.occ_percent::.tsunami.ide     0.204777                       # Average percentage of cache occupancy
system.iocache.tags.occ_percent::total       0.204777                       # Average percentage of cache occupancy
system.iocache.tags.occ_task_id_blocks::1023           16                       # Occupied blocks per task id
system.iocache.tags.age_task_id_blocks_1023::3           16                       # Occupied blocks per task id
system.iocache.tags.occ_task_id_percent::1023            1                       # Percentage of cache occupancy per task id
system.iocache.tags.tag_accesses                 1755                       # Number of tag accesses
system.iocache.tags.data_accesses                1755                       # Number of data accesses
system.membus.pwrStateResidencyTicks::UNDEFINED 2541833734500                       # Cumulative time (in ticks) in various power states
system.membus.trans_dist::ReadReq                 108                       # Transaction distribution
system.membus.trans_dist::ReadResp             128122                       # Transaction distribution
system.membus.trans_dist::WriteReq                 99                       # Transaction distribution
system.membus.trans_dist::WriteResp                99                       # Transaction distribution
system.membus.trans_dist::WritebackDirty        34841                       # Transaction distribution
system.membus.trans_dist::WritebackClean        86592                       # Transaction distribution
system.membus.trans_dist::CleanEvict            34148                       # Transaction distribution
system.membus.trans_dist::UpgradeReq               16                       # Transaction distribution
system.membus.trans_dist::ReadExReq             29005                       # Transaction distribution
system.membus.trans_dist::ReadExResp            29005                       # Transaction distribution
system.membus.trans_dist::ReadCleanReq          87182                       # Transaction distribution
system.membus.trans_dist::ReadSharedReq         40834                       # Transaction distribution
system.membus.trans_dist::BadAddressError            2                       # Transaction distribution
system.membus.trans_dist::InvalidateReq           192                       # Transaction distribution
system.membus.pkt_count_system.iocache.mem_side::system.mem_ctrls.port          374                       # Packet count per connected master and slave (bytes)
system.membus.pkt_count_system.iocache.mem_side::total          374                       # Packet count per connected master and slave (bytes)
system.membus.pkt_count_system.cpu.icache.mem_side::system.mem_ctrls.port       260893                       # Packet count per connected master and slave (bytes)
system.membus.pkt_count_system.cpu.icache.mem_side::total       260893                       # Packet count per connected master and slave (bytes)
system.membus.pkt_count_system.cpu.dcache.mem_side::system.bridge.slave          414                       # Packet count per connected master and slave (bytes)
system.membus.pkt_count_system.cpu.dcache.mem_side::system.mem_ctrls.port       208494                       # Packet count per connected master and slave (bytes)
system.membus.pkt_count_system.cpu.dcache.mem_side::system.membus.badaddr_responder.pio            4                       # Packet count per connected master and slave (bytes)
system.membus.pkt_count_system.cpu.dcache.mem_side::total       208912                       # Packet count per connected master and slave (bytes)
system.membus.pkt_count::total                 470179                       # Packet count per connected master and slave (bytes)
system.membus.pkt_size_system.iocache.mem_side::system.mem_ctrls.port        11264                       # Cumulative packet size per connected master and slave (bytes)
system.membus.pkt_size_system.iocache.mem_side::total        11264                       # Cumulative packet size per connected master and slave (bytes)
system.membus.pkt_size_system.cpu.icache.mem_side::system.mem_ctrls.port     11117504                       # Cumulative packet size per connected master and slave (bytes)
system.membus.pkt_size_system.cpu.icache.mem_side::total     11117504                       # Cumulative packet size per connected master and slave (bytes)
system.membus.pkt_size_system.cpu.dcache.mem_side::system.bridge.slave          433                       # Cumulative packet size per connected master and slave (bytes)
system.membus.pkt_size_system.cpu.dcache.mem_side::system.mem_ctrls.port      6687936                       # Cumulative packet size per connected master and slave (bytes)
system.membus.pkt_size_system.cpu.dcache.mem_side::total      6688369                       # Cumulative packet size per connected master and slave (bytes)
system.membus.pkt_size::total                17817137                       # Cumulative packet size per connected master and slave (bytes)
system.membus.snoops                               66                       # Total snoops (count)
system.membus.snoopTraffic                       4224                       # Total snoop traffic (bytes)
system.membus.snoop_fanout::samples            157436                       # Request fanout histogram
system.membus.snoop_fanout::mean             0.002814                       # Request fanout histogram
system.membus.snoop_fanout::stdev            0.052971                       # Request fanout histogram
system.membus.snoop_fanout::underflows              0      0.00%      0.00% # Request fanout histogram
system.membus.snoop_fanout::0                  156993     99.72%     99.72% # Request fanout histogram
system.membus.snoop_fanout::1                     443      0.28%    100.00% # Request fanout histogram
system.membus.snoop_fanout::2                       0      0.00%    100.00% # Request fanout histogram
system.membus.snoop_fanout::3                       0      0.00%    100.00% # Request fanout histogram
system.membus.snoop_fanout::overflows               0      0.00%    100.00% # Request fanout histogram
system.membus.snoop_fanout::min_value               0                       # Request fanout histogram
system.membus.snoop_fanout::max_value               1                       # Request fanout histogram
system.membus.snoop_fanout::total              157436                       # Request fanout histogram
system.membus.reqLayer0.occupancy              352500                       # Layer occupancy (ticks)
system.membus.reqLayer0.utilization               0.0                       # Layer utilization (%)
system.membus.reqLayer1.occupancy           820840537                       # Layer occupancy (ticks)
system.membus.reqLayer1.utilization               6.9                       # Layer utilization (%)
system.membus.reqLayer2.occupancy                3000                       # Layer occupancy (ticks)
system.membus.reqLayer2.utilization               0.0                       # Layer utilization (%)
system.membus.respLayer1.occupancy              17997                       # Layer occupancy (ticks)
system.membus.respLayer1.utilization              0.0                       # Layer utilization (%)
system.membus.respLayer3.occupancy          375708500                       # Layer occupancy (ticks)
system.membus.respLayer3.utilization              3.2                       # Layer utilization (%)
system.membus.badaddr_responder.pwrStateResidencyTicks::UNDEFINED 2541833734500                       # Cumulative time (in ticks) in various power states
system.membus.respLayer2.occupancy          462315250                       # Layer occupancy (ticks)
system.membus.respLayer2.utilization              3.9                       # Layer utilization (%)
system.clk_domain.clock                          1000                       # Clock period in ticks
system.tsunami.fake_uart1.pwrStateResidencyTicks::UNDEFINED 2541833734500                       # Cumulative time (in ticks) in various power states
system.tsunami.fake_uart2.pwrStateResidencyTicks::UNDEFINED 2541833734500                       # Cumulative time (in ticks) in various power states
system.tsunami.fake_uart3.pwrStateResidencyTicks::UNDEFINED 2541833734500                       # Cumulative time (in ticks) in various power states
system.tsunami.fake_uart4.pwrStateResidencyTicks::UNDEFINED 2541833734500                       # Cumulative time (in ticks) in various power states
system.tsunami.fake_ppc.pwrStateResidencyTicks::UNDEFINED 2541833734500                       # Cumulative time (in ticks) in various power states
system.tsunami.cchip.pwrStateResidencyTicks::UNDEFINED 2541833734500                       # Cumulative time (in ticks) in various power states
system.tsunami.io.pwrStateResidencyTicks::UNDEFINED 2541833734500                       # Cumulative time (in ticks) in various power states
system.tsunami.pchip.pwrStateResidencyTicks::UNDEFINED 2541833734500                       # Cumulative time (in ticks) in various power states
system.tsunami.fake_ata1.pwrStateResidencyTicks::UNDEFINED 2541833734500                       # Cumulative time (in ticks) in various power states
system.tsunami.fake_ata0.pwrStateResidencyTicks::UNDEFINED 2541833734500                       # Cumulative time (in ticks) in various power states
system.tsunami.backdoor.pwrStateResidencyTicks::UNDEFINED 2541833734500                       # Cumulative time (in ticks) in various power states
system.tsunami.fake_pnp_read3.pwrStateResidencyTicks::UNDEFINED 2541833734500                       # Cumulative time (in ticks) in various power states
system.tsunami.fake_pnp_read2.pwrStateResidencyTicks::UNDEFINED 2541833734500                       # Cumulative time (in ticks) in various power states
system.tsunami.fake_pnp_read1.pwrStateResidencyTicks::UNDEFINED 2541833734500                       # Cumulative time (in ticks) in various power states
system.tsunami.fake_pnp_read0.pwrStateResidencyTicks::UNDEFINED 2541833734500                       # Cumulative time (in ticks) in various power states
system.tsunami.fake_pnp_read7.pwrStateResidencyTicks::UNDEFINED 2541833734500                       # Cumulative time (in ticks) in various power states
system.tsunami.fake_pnp_read6.pwrStateResidencyTicks::UNDEFINED 2541833734500                       # Cumulative time (in ticks) in various power states
system.tsunami.fake_pnp_read5.pwrStateResidencyTicks::UNDEFINED 2541833734500                       # Cumulative time (in ticks) in various power states
system.tsunami.fake_pnp_read4.pwrStateResidencyTicks::UNDEFINED 2541833734500                       # Cumulative time (in ticks) in various power states
system.tsunami.fake_pnp_write.pwrStateResidencyTicks::UNDEFINED 2541833734500                       # Cumulative time (in ticks) in various power states
system.tsunami.fb.pwrStateResidencyTicks::UNDEFINED 2541833734500                       # Cumulative time (in ticks) in various power states
system.tsunami.fake_pnp_addr.pwrStateResidencyTicks::UNDEFINED 2541833734500                       # Cumulative time (in ticks) in various power states
system.tsunami.fake_OROM.pwrStateResidencyTicks::UNDEFINED 2541833734500                       # Cumulative time (in ticks) in various power states
system.tsunami.uart.pwrStateResidencyTicks::UNDEFINED 2541833734500                       # Cumulative time (in ticks) in various power states
system.tsunami.fake_sm_chip.pwrStateResidencyTicks::UNDEFINED 2541833734500                       # Cumulative time (in ticks) in various power states
system.tsunami.ethernet.pwrStateResidencyTicks::UNDEFINED 2541833734500                       # Cumulative time (in ticks) in various power states
system.tsunami.ide.pwrStateResidencyTicks::UNDEFINED 2541833734500                       # Cumulative time (in ticks) in various power states
system.cpu_voltage_domain.voltage                   1                       # Voltage in Volts
system.mem_ctrls.pwrStateResidencyTicks::UNDEFINED 2541833734500                       # Cumulative time (in ticks) in various power states
system.mem_ctrls.bytes_read::.cpu.inst        5575616                       # Number of bytes read from this memory
system.mem_ctrls.bytes_read::.cpu.data        4469376                       # Number of bytes read from this memory
system.mem_ctrls.bytes_read::total           10044992                       # Number of bytes read from this memory
system.mem_ctrls.bytes_inst_read::.cpu.inst      5575616                       # Number of instructions bytes read from this memory
system.mem_ctrls.bytes_inst_read::total       5575616                       # Number of instructions bytes read from this memory
system.mem_ctrls.bytes_written::.writebacks      2229824                       # Number of bytes written to this memory
system.mem_ctrls.bytes_written::total         2229824                       # Number of bytes written to this memory
system.mem_ctrls.num_reads::.cpu.inst           87119                       # Number of read requests responded to by this memory
system.mem_ctrls.num_reads::.cpu.data           69834                       # Number of read requests responded to by this memory
system.mem_ctrls.num_reads::total              156953                       # Number of read requests responded to by this memory
system.mem_ctrls.num_writes::.writebacks        34841                       # Number of write requests responded to by this memory
system.mem_ctrls.num_writes::total              34841                       # Number of write requests responded to by this memory
system.mem_ctrls.bw_read::.cpu.inst         471555151                       # Total read bandwidth from this memory (bytes/s)
system.mem_ctrls.bw_read::.cpu.data         377995413                       # Total read bandwidth from this memory (bytes/s)
system.mem_ctrls.bw_read::total             849550565                       # Total read bandwidth from this memory (bytes/s)
system.mem_ctrls.bw_inst_read::.cpu.inst    471555151                       # Instruction read bandwidth from this memory (bytes/s)
system.mem_ctrls.bw_inst_read::total        471555151                       # Instruction read bandwidth from this memory (bytes/s)
system.mem_ctrls.bw_write::.writebacks      188586336                       # Write bandwidth from this memory (bytes/s)
system.mem_ctrls.bw_write::total            188586336                       # Write bandwidth from this memory (bytes/s)
system.mem_ctrls.bw_total::.writebacks      188586336                       # Total bandwidth to/from this memory (bytes/s)
system.mem_ctrls.bw_total::.cpu.inst        471555151                       # Total bandwidth to/from this memory (bytes/s)
system.mem_ctrls.bw_total::.cpu.data        377995413                       # Total bandwidth to/from this memory (bytes/s)
system.mem_ctrls.bw_total::total           1038136901                       # Total bandwidth to/from this memory (bytes/s)
system.mem_ctrls.avgPriority_.writebacks::samples    119021.00                       # Average QoS priority value for accepted requests
system.mem_ctrls.avgPriority_.cpu.inst::samples     77276.00                       # Average QoS priority value for accepted requests
system.mem_ctrls.avgPriority_.cpu.data::samples     69331.00                       # Average QoS priority value for accepted requests
system.mem_ctrls.priorityMinLatency      0.000000018750                       # per QoS priority minimum request to response latency (s)
system.mem_ctrls.priorityMaxLatency      0.000124364750                       # per QoS priority maximum request to response latency (s)
system.mem_ctrls.numReadWriteTurnArounds         7323                       # Number of turnarounds from READ to WRITE
system.mem_ctrls.numWriteReadTurnArounds         7323                       # Number of turnarounds from WRITE to READ
system.mem_ctrls.numStayReadState              406701                       # Number of times bus staying in READ state
system.mem_ctrls.numStayWriteState             111777                       # Number of times bus staying in WRITE state
system.mem_ctrls.readReqs                      156953                       # Number of read requests accepted
system.mem_ctrls.writeReqs                     121213                       # Number of write requests accepted
system.mem_ctrls.readBursts                    156953                       # Number of DRAM read bursts, including those serviced by the write queue
system.mem_ctrls.writeBursts                   121213                       # Number of DRAM write bursts, including those merged in the write queue
system.mem_ctrls.servicedByWrQ                  10346                       # Number of DRAM read bursts serviced by the write queue
system.mem_ctrls.mergedWrBursts                  2192                       # Number of DRAM write bursts merged with an existing one
system.mem_ctrls.neitherReadNorWriteReqs            0                       # Number of requests that are neither read nor write
system.mem_ctrls.perBankRdBursts::0              8771                       # Per bank write bursts
system.mem_ctrls.perBankRdBursts::1              6739                       # Per bank write bursts
system.mem_ctrls.perBankRdBursts::2              9903                       # Per bank write bursts
system.mem_ctrls.perBankRdBursts::3              7145                       # Per bank write bursts
system.mem_ctrls.perBankRdBursts::4              8529                       # Per bank write bursts
system.mem_ctrls.perBankRdBursts::5             10025                       # Per bank write bursts
system.mem_ctrls.perBankRdBursts::6              8506                       # Per bank write bursts
system.mem_ctrls.perBankRdBursts::7              8667                       # Per bank write bursts
system.mem_ctrls.perBankRdBursts::8             11833                       # Per bank write bursts
system.mem_ctrls.perBankRdBursts::9              9214                       # Per bank write bursts
system.mem_ctrls.perBankRdBursts::10            10647                       # Per bank write bursts
system.mem_ctrls.perBankRdBursts::11            11960                       # Per bank write bursts
system.mem_ctrls.perBankRdBursts::12             8882                       # Per bank write bursts
system.mem_ctrls.perBankRdBursts::13            13484                       # Per bank write bursts
system.mem_ctrls.perBankRdBursts::14             5509                       # Per bank write bursts
system.mem_ctrls.perBankRdBursts::15             6793                       # Per bank write bursts
system.mem_ctrls.perBankWrBursts::0              7060                       # Per bank write bursts
system.mem_ctrls.perBankWrBursts::1              4536                       # Per bank write bursts
system.mem_ctrls.perBankWrBursts::2              8585                       # Per bank write bursts
system.mem_ctrls.perBankWrBursts::3              7938                       # Per bank write bursts
system.mem_ctrls.perBankWrBursts::4              7673                       # Per bank write bursts
system.mem_ctrls.perBankWrBursts::5              9884                       # Per bank write bursts
system.mem_ctrls.perBankWrBursts::6              7280                       # Per bank write bursts
system.mem_ctrls.perBankWrBursts::7              6857                       # Per bank write bursts
system.mem_ctrls.perBankWrBursts::8             10603                       # Per bank write bursts
system.mem_ctrls.perBankWrBursts::9              8402                       # Per bank write bursts
system.mem_ctrls.perBankWrBursts::10             7951                       # Per bank write bursts
system.mem_ctrls.perBankWrBursts::11             8020                       # Per bank write bursts
system.mem_ctrls.perBankWrBursts::12             5444                       # Per bank write bursts
system.mem_ctrls.perBankWrBursts::13             9927                       # Per bank write bursts
system.mem_ctrls.perBankWrBursts::14             3160                       # Per bank write bursts
system.mem_ctrls.perBankWrBursts::15             5671                       # Per bank write bursts
system.mem_ctrls.avgRdQLen                       1.09                       # Average read queue length when enqueuing
system.mem_ctrls.avgWrQLen                      25.73                       # Average write queue length when enqueuing
system.mem_ctrls.totQLat                   2007874500                       # Total ticks spent queuing
system.mem_ctrls.totBusLat                  733035000                       # Total ticks spent in databus transfers
system.mem_ctrls.totMemAccLat              4756755750                       # Total ticks spent from burst creation until serviced by the DRAM
system.mem_ctrls.avgQLat                     13695.63                       # Average queueing delay per DRAM burst
system.mem_ctrls.avgBusLat                    5000.00                       # Average bus latency per DRAM burst
system.mem_ctrls.avgMemAccLat                32445.63                       # Average memory access latency per DRAM burst
system.mem_ctrls.numRdRetry                         0                       # Number of times read queue was full causing retry
system.mem_ctrls.numWrRetry                         0                       # Number of times write queue was full causing retry
system.mem_ctrls.readRowHits                   103883                       # Number of row buffer hits during reads
system.mem_ctrls.writeRowHits                   80255                       # Number of row buffer hits during writes
system.mem_ctrls.readRowHitRate                 70.86                       # Row buffer hit rate for reads
system.mem_ctrls.writeRowHitRate                67.43                       # Row buffer hit rate for writes
system.mem_ctrls.readPktSize::0                     0                       # Read request sizes (log2)
system.mem_ctrls.readPktSize::1                     0                       # Read request sizes (log2)
system.mem_ctrls.readPktSize::2                     0                       # Read request sizes (log2)
system.mem_ctrls.readPktSize::3                     0                       # Read request sizes (log2)
system.mem_ctrls.readPktSize::4                     0                       # Read request sizes (log2)
system.mem_ctrls.readPktSize::5                     0                       # Read request sizes (log2)
system.mem_ctrls.readPktSize::6                156953                       # Read request sizes (log2)
system.mem_ctrls.writePktSize::0                    0                       # Write request sizes (log2)
system.mem_ctrls.writePktSize::1                    0                       # Write request sizes (log2)
system.mem_ctrls.writePktSize::2                    0                       # Write request sizes (log2)
system.mem_ctrls.writePktSize::3                    0                       # Write request sizes (log2)
system.mem_ctrls.writePktSize::4                    0                       # Write request sizes (log2)
system.mem_ctrls.writePktSize::5                    0                       # Write request sizes (log2)
system.mem_ctrls.writePktSize::6               121213                       # Write request sizes (log2)
system.mem_ctrls.rdQLenPdf::0                  134152                       # What read queue length does an incoming req see
system.mem_ctrls.rdQLenPdf::1                   12140                       # What read queue length does an incoming req see
system.mem_ctrls.rdQLenPdf::2                     315                       # What read queue length does an incoming req see
system.mem_ctrls.rdQLenPdf::3                       0                       # What read queue length does an incoming req see
system.mem_ctrls.rdQLenPdf::4                       0                       # What read queue length does an incoming req see
system.mem_ctrls.rdQLenPdf::5                       0                       # What read queue length does an incoming req see
system.mem_ctrls.rdQLenPdf::6                       0                       # What read queue length does an incoming req see
system.mem_ctrls.rdQLenPdf::7                       0                       # What read queue length does an incoming req see
system.mem_ctrls.rdQLenPdf::8                       0                       # What read queue length does an incoming req see
system.mem_ctrls.rdQLenPdf::9                       0                       # What read queue length does an incoming req see
system.mem_ctrls.rdQLenPdf::10                      0                       # What read queue length does an incoming req see
system.mem_ctrls.rdQLenPdf::11                      0                       # What read queue length does an incoming req see
system.mem_ctrls.rdQLenPdf::12                      0                       # What read queue length does an incoming req see
system.mem_ctrls.rdQLenPdf::13                      0                       # What read queue length does an incoming req see
system.mem_ctrls.rdQLenPdf::14                      0                       # What read queue length does an incoming req see
system.mem_ctrls.rdQLenPdf::15                      0                       # What read queue length does an incoming req see
system.mem_ctrls.rdQLenPdf::16                      0                       # What read queue length does an incoming req see
system.mem_ctrls.rdQLenPdf::17                      0                       # What read queue length does an incoming req see
system.mem_ctrls.rdQLenPdf::18                      0                       # What read queue length does an incoming req see
system.mem_ctrls.rdQLenPdf::19                      0                       # What read queue length does an incoming req see
system.mem_ctrls.rdQLenPdf::20                      0                       # What read queue length does an incoming req see
system.mem_ctrls.rdQLenPdf::21                      0                       # What read queue length does an incoming req see
system.mem_ctrls.rdQLenPdf::22                      0                       # What read queue length does an incoming req see
system.mem_ctrls.rdQLenPdf::23                      0                       # What read queue length does an incoming req see
system.mem_ctrls.rdQLenPdf::24                      0                       # What read queue length does an incoming req see
system.mem_ctrls.rdQLenPdf::25                      0                       # What read queue length does an incoming req see
system.mem_ctrls.rdQLenPdf::26                      0                       # What read queue length does an incoming req see
system.mem_ctrls.rdQLenPdf::27                      0                       # What read queue length does an incoming req see
system.mem_ctrls.rdQLenPdf::28                      0                       # What read queue length does an incoming req see
system.mem_ctrls.rdQLenPdf::29                      0                       # What read queue length does an incoming req see
system.mem_ctrls.rdQLenPdf::30                      0                       # What read queue length does an incoming req see
system.mem_ctrls.rdQLenPdf::31                      0                       # What read queue length does an incoming req see
system.mem_ctrls.wrQLenPdf::0                       1                       # What write queue length does an incoming req see
system.mem_ctrls.wrQLenPdf::1                       1                       # What write queue length does an incoming req see
system.mem_ctrls.wrQLenPdf::2                       1                       # What write queue length does an incoming req see
system.mem_ctrls.wrQLenPdf::3                       1                       # What write queue length does an incoming req see
system.mem_ctrls.wrQLenPdf::4                       1                       # What write queue length does an incoming req see
system.mem_ctrls.wrQLenPdf::5                       1                       # What write queue length does an incoming req see
system.mem_ctrls.wrQLenPdf::6                       1                       # What write queue length does an incoming req see
system.mem_ctrls.wrQLenPdf::7                       1                       # What write queue length does an incoming req see
system.mem_ctrls.wrQLenPdf::8                       1                       # What write queue length does an incoming req see
system.mem_ctrls.wrQLenPdf::9                       1                       # What write queue length does an incoming req see
system.mem_ctrls.wrQLenPdf::10                      1                       # What write queue length does an incoming req see
system.mem_ctrls.wrQLenPdf::11                      1                       # What write queue length does an incoming req see
system.mem_ctrls.wrQLenPdf::12                      1                       # What write queue length does an incoming req see
system.mem_ctrls.wrQLenPdf::13                      1                       # What write queue length does an incoming req see
system.mem_ctrls.wrQLenPdf::14                      1                       # What write queue length does an incoming req see
system.mem_ctrls.wrQLenPdf::15                    666                       # What write queue length does an incoming req see
system.mem_ctrls.wrQLenPdf::16                    767                       # What write queue length does an incoming req see
system.mem_ctrls.wrQLenPdf::17                   6704                       # What write queue length does an incoming req see
system.mem_ctrls.wrQLenPdf::18                   7321                       # What write queue length does an incoming req see
system.mem_ctrls.wrQLenPdf::19                   7452                       # What write queue length does an incoming req see
system.mem_ctrls.wrQLenPdf::20                   7411                       # What write queue length does an incoming req see
system.mem_ctrls.wrQLenPdf::21                   7427                       # What write queue length does an incoming req see
system.mem_ctrls.wrQLenPdf::22                   7498                       # What write queue length does an incoming req see
system.mem_ctrls.wrQLenPdf::23                   7409                       # What write queue length does an incoming req see
system.mem_ctrls.wrQLenPdf::24                   7415                       # What write queue length does an incoming req see
system.mem_ctrls.wrQLenPdf::25                   7384                       # What write queue length does an incoming req see
system.mem_ctrls.wrQLenPdf::26                   7426                       # What write queue length does an incoming req see
system.mem_ctrls.wrQLenPdf::27                   7401                       # What write queue length does an incoming req see
system.mem_ctrls.wrQLenPdf::28                   7373                       # What write queue length does an incoming req see
system.mem_ctrls.wrQLenPdf::29                   7347                       # What write queue length does an incoming req see
system.mem_ctrls.wrQLenPdf::30                   7329                       # What write queue length does an incoming req see
system.mem_ctrls.wrQLenPdf::31                   7324                       # What write queue length does an incoming req see
system.mem_ctrls.wrQLenPdf::32                   7323                       # What write queue length does an incoming req see
system.mem_ctrls.wrQLenPdf::33                     15                       # What write queue length does an incoming req see
system.mem_ctrls.wrQLenPdf::34                      8                       # What write queue length does an incoming req see
system.mem_ctrls.wrQLenPdf::35                      4                       # What write queue length does an incoming req see
system.mem_ctrls.wrQLenPdf::36                      1                       # What write queue length does an incoming req see
system.mem_ctrls.wrQLenPdf::37                      1                       # What write queue length does an incoming req see
system.mem_ctrls.wrQLenPdf::38                      0                       # What write queue length does an incoming req see
system.mem_ctrls.wrQLenPdf::39                      0                       # What write queue length does an incoming req see
system.mem_ctrls.wrQLenPdf::40                      0                       # What write queue length does an incoming req see
system.mem_ctrls.wrQLenPdf::41                      0                       # What write queue length does an incoming req see
system.mem_ctrls.wrQLenPdf::42                      0                       # What write queue length does an incoming req see
system.mem_ctrls.wrQLenPdf::43                      0                       # What write queue length does an incoming req see
system.mem_ctrls.wrQLenPdf::44                      0                       # What write queue length does an incoming req see
system.mem_ctrls.wrQLenPdf::45                      0                       # What write queue length does an incoming req see
system.mem_ctrls.wrQLenPdf::46                      0                       # What write queue length does an incoming req see
system.mem_ctrls.wrQLenPdf::47                      0                       # What write queue length does an incoming req see
system.mem_ctrls.wrQLenPdf::48                      0                       # What write queue length does an incoming req see
system.mem_ctrls.wrQLenPdf::49                      0                       # What write queue length does an incoming req see
system.mem_ctrls.wrQLenPdf::50                      0                       # What write queue length does an incoming req see
system.mem_ctrls.wrQLenPdf::51                      0                       # What write queue length does an incoming req see
system.mem_ctrls.wrQLenPdf::52                      0                       # What write queue length does an incoming req see
system.mem_ctrls.wrQLenPdf::53                      0                       # What write queue length does an incoming req see
system.mem_ctrls.wrQLenPdf::54                      0                       # What write queue length does an incoming req see
system.mem_ctrls.wrQLenPdf::55                      0                       # What write queue length does an incoming req see
system.mem_ctrls.wrQLenPdf::56                      0                       # What write queue length does an incoming req see
system.mem_ctrls.wrQLenPdf::57                      0                       # What write queue length does an incoming req see
system.mem_ctrls.wrQLenPdf::58                      0                       # What write queue length does an incoming req see
system.mem_ctrls.wrQLenPdf::59                      0                       # What write queue length does an incoming req see
system.mem_ctrls.wrQLenPdf::60                      0                       # What write queue length does an incoming req see
system.mem_ctrls.wrQLenPdf::61                      0                       # What write queue length does an incoming req see
system.mem_ctrls.wrQLenPdf::62                      0                       # What write queue length does an incoming req see
system.mem_ctrls.wrQLenPdf::63                      0                       # What write queue length does an incoming req see
system.mem_ctrls.bytesPerActivate::samples        81448                       # Bytes accessed per row activation
system.mem_ctrls.bytesPerActivate::mean    208.661625                       # Bytes accessed per row activation
system.mem_ctrls.bytesPerActivate::gmean   140.521472                       # Bytes accessed per row activation
system.mem_ctrls.bytesPerActivate::stdev   224.734074                       # Bytes accessed per row activation
system.mem_ctrls.bytesPerActivate::0-127        34274     42.08%     42.08% # Bytes accessed per row activation
system.mem_ctrls.bytesPerActivate::128-255        24450     30.02%     72.10% # Bytes accessed per row activation
system.mem_ctrls.bytesPerActivate::256-383         9993     12.27%     84.37% # Bytes accessed per row activation
system.mem_ctrls.bytesPerActivate::384-511         4610      5.66%     90.03% # Bytes accessed per row activation
system.mem_ctrls.bytesPerActivate::512-639         2334      2.87%     92.89% # Bytes accessed per row activation
system.mem_ctrls.bytesPerActivate::640-767         1507      1.85%     94.75% # Bytes accessed per row activation
system.mem_ctrls.bytesPerActivate::768-895          940      1.15%     95.90% # Bytes accessed per row activation
system.mem_ctrls.bytesPerActivate::896-1023          551      0.68%     96.58% # Bytes accessed per row activation
system.mem_ctrls.bytesPerActivate::1024-1151         2789      3.42%    100.00% # Bytes accessed per row activation
system.mem_ctrls.bytesPerActivate::total        81448                       # Bytes accessed per row activation
system.mem_ctrls.rdPerTurnAround::samples         7323                       # Reads before turning the bus around for writes
system.mem_ctrls.rdPerTurnAround::mean      20.018299                       # Reads before turning the bus around for writes
system.mem_ctrls.rdPerTurnAround::gmean     18.415791                       # Reads before turning the bus around for writes
system.mem_ctrls.rdPerTurnAround::stdev     12.656502                       # Reads before turning the bus around for writes
system.mem_ctrls.rdPerTurnAround::0-15           1287     17.57%     17.57% # Reads before turning the bus around for writes
system.mem_ctrls.rdPerTurnAround::16-31          5557     75.88%     93.46% # Reads before turning the bus around for writes
system.mem_ctrls.rdPerTurnAround::32-47           287      3.92%     97.38% # Reads before turning the bus around for writes
system.mem_ctrls.rdPerTurnAround::48-63            93      1.27%     98.65% # Reads before turning the bus around for writes
system.mem_ctrls.rdPerTurnAround::64-79            38      0.52%     99.17% # Reads before turning the bus around for writes
system.mem_ctrls.rdPerTurnAround::80-95            21      0.29%     99.45% # Reads before turning the bus around for writes
system.mem_ctrls.rdPerTurnAround::96-111           14      0.19%     99.64% # Reads before turning the bus around for writes
system.mem_ctrls.rdPerTurnAround::112-127           10      0.14%     99.78% # Reads before turning the bus around for writes
system.mem_ctrls.rdPerTurnAround::128-143            7      0.10%     99.88% # Reads before turning the bus around for writes
system.mem_ctrls.rdPerTurnAround::144-159            5      0.07%     99.95% # Reads before turning the bus around for writes
system.mem_ctrls.rdPerTurnAround::160-175            2      0.03%     99.97% # Reads before turning the bus around for writes
system.mem_ctrls.rdPerTurnAround::256-271            1      0.01%     99.99% # Reads before turning the bus around for writes
system.mem_ctrls.rdPerTurnAround::400-415            1      0.01%    100.00% # Reads before turning the bus around for writes
system.mem_ctrls.rdPerTurnAround::total          7323                       # Reads before turning the bus around for writes
system.mem_ctrls.wrPerTurnAround::samples         7323                       # Writes before turning the bus around for reads
system.mem_ctrls.wrPerTurnAround::mean      16.248942                       # Writes before turning the bus around for reads
system.mem_ctrls.wrPerTurnAround::gmean     16.232473                       # Writes before turning the bus around for reads
system.mem_ctrls.wrPerTurnAround::stdev      0.766441                       # Writes before turning the bus around for reads
system.mem_ctrls.wrPerTurnAround::16             6532     89.20%     89.20% # Writes before turning the bus around for reads
system.mem_ctrls.wrPerTurnAround::17               94      1.28%     90.48% # Writes before turning the bus around for reads
system.mem_ctrls.wrPerTurnAround::18              451      6.16%     96.64% # Writes before turning the bus around for reads
system.mem_ctrls.wrPerTurnAround::19              165      2.25%     98.89% # Writes before turning the bus around for reads
system.mem_ctrls.wrPerTurnAround::20               75      1.02%     99.92% # Writes before turning the bus around for reads
system.mem_ctrls.wrPerTurnAround::21                4      0.05%     99.97% # Writes before turning the bus around for reads
system.mem_ctrls.wrPerTurnAround::22                2      0.03%    100.00% # Writes before turning the bus around for reads
system.mem_ctrls.wrPerTurnAround::total          7323                       # Writes before turning the bus around for reads
system.mem_ctrls.bytesReadDRAM                9382848                       # Total number of bytes read from DRAM
system.mem_ctrls.bytesReadWrQ                  662144                       # Total number of bytes read from write queue
system.mem_ctrls.bytesWritten                 7615424                       # Total number of bytes written to DRAM
system.mem_ctrls.bytesReadSys                10044992                       # Total read bytes from the system interface side
system.mem_ctrls.bytesWrittenSys              7757632                       # Total written bytes from the system interface side
system.mem_ctrls.avgRdBW                       793.55                       # Average DRAM read bandwidth in MiByte/s
system.mem_ctrls.avgWrBW                       644.07                       # Average achieved write bandwidth in MiByte/s
system.mem_ctrls.avgRdBWSys                    849.55                       # Average system read bandwidth in MiByte/s
system.mem_ctrls.avgWrBWSys                    656.10                       # Average system write bandwidth in MiByte/s
system.mem_ctrls.peakBW                      12800.00                       # Theoretical peak bandwidth in MiByte/s
system.mem_ctrls.busUtil                        11.23                       # Data bus utilization in percentage
system.mem_ctrls.busUtilRead                     6.20                       # Data bus utilization in percentage for reads
system.mem_ctrls.busUtilWrite                    5.03                       # Data bus utilization in percentage for writes
system.mem_ctrls.totGap                   11823884500                       # Total gap between requests
system.mem_ctrls.avgGap                      42506.58                       # Average gap between requests
system.mem_ctrls.masterReadBytes::.cpu.inst      4945664                       # Per-master bytes read from memory
system.mem_ctrls.masterReadBytes::.cpu.data      4437184                       # Per-master bytes read from memory
system.mem_ctrls.masterWriteBytes::.writebacks      7615424                       # Per-master bytes write to memory
system.mem_ctrls.masterReadRate::.cpu.inst 418277251.322418034077                       # Per-master bytes read from memory rate (Bytes/sec)
system.mem_ctrls.masterReadRate::.cpu.data 375272789.888640284538                       # Per-master bytes read from memory rate (Bytes/sec)
[...]
system.cpu.icache.ReadReq_mshr_miss_latency::total  36625276500                       # number of ReadReq MSHR miss cycles
system.cpu.icache.ReadReq_mshr_miss_rate::.cpu.inst     0.005949                       # mshr miss rate for ReadReq accesses
system.cpu.icache.ReadReq_mshr_miss_rate::total     0.005949                       # mshr miss rate for ReadReq accesses
system.cpu.icache.ReadReq_avg_mshr_miss_latency::.cpu.inst 60001.894653                       # average ReadReq mshr miss latency
system.cpu.icache.ReadReq_avg_mshr_miss_latency::total 60001.894653                       # average ReadReq mshr miss latency
system.cpu.icache.tags.pwrStateResidencyTicks::UNDEFINED 357780785000                       # Cumulative time (in ticks) in various power states
system.cpu.icache.tags.tagsinuse                  512                       # Cycle average of tags in use
system.cpu.icache.tags.total_refs           102818552                       # Total number of references to valid blocks.
system.cpu.icache.tags.sampled_refs            610914                       # Sample count of references to valid blocks.
system.cpu.icache.tags.avg_refs            168.302825                       # Average number of references to valid blocks.
system.cpu.icache.tags.warmup_cycle                 0                       # Cycle when the warmup percentage was hit.
system.cpu.icache.tags.occ_blocks::.cpu.inst          512                       # Average occupied blocks per requestor
system.cpu.icache.tags.occ_percent::.cpu.inst            1                       # Average percentage of cache occupancy
system.cpu.icache.tags.occ_percent::total            1                       # Average percentage of cache occupancy
system.cpu.icache.tags.occ_task_id_blocks::1024          512                       # Occupied blocks per task id
system.cpu.icache.tags.age_task_id_blocks_1024::0           39                       # Occupied blocks per task id
system.cpu.icache.tags.age_task_id_blocks_1024::1          144                       # Occupied blocks per task id
system.cpu.icache.tags.age_task_id_blocks_1024::2          126                       # Occupied blocks per task id
system.cpu.icache.tags.age_task_id_blocks_1024::3          167                       # Occupied blocks per task id
system.cpu.icache.tags.age_task_id_blocks_1024::4           36                       # Occupied blocks per task id
system.cpu.icache.tags.occ_task_id_percent::1024            1                       # Percentage of cache occupancy per task id
system.cpu.icache.tags.tag_accesses         205816000                       # Number of tag accesses
system.cpu.icache.tags.data_accesses        205816000                       # Number of data accesses
system.cpu.dcache.pwrStateResidencyTicks::UNDEFINED 357780785000                       # Cumulative time (in ticks) in various power states
system.cpu.dcache.demand_hits::.cpu.data    124748100                       # number of demand (read+write) hits
system.cpu.dcache.demand_hits::total        124748100                       # number of demand (read+write) hits
system.cpu.dcache.overall_hits::.cpu.data    124748100                       # number of overall hits
system.cpu.dcache.overall_hits::total       124748100                       # number of overall hits
system.cpu.dcache.demand_misses::.cpu.data      1741532                       # number of demand (read+write) misses
system.cpu.dcache.demand_misses::total        1741532                       # number of demand (read+write) misses
system.cpu.dcache.overall_misses::.cpu.data      1741532                       # number of overall misses
system.cpu.dcache.overall_misses::total       1741532                       # number of overall misses
system.cpu.dcache.demand_miss_latency::.cpu.data 106250319000                       # number of demand (read+write) miss cycles
system.cpu.dcache.demand_miss_latency::total 106250319000                       # number of demand (read+write) miss cycles
system.cpu.dcache.overall_miss_latency::.cpu.data 106250319000                       # number of overall miss cycles
system.cpu.dcache.overall_miss_latency::total 106250319000                       # number of overall miss cycles
system.cpu.dcache.demand_accesses::.cpu.data    126489632                       # number of demand (read+write) accesses
system.cpu.dcache.demand_accesses::total    126489632                       # number of demand (read+write) accesses
system.cpu.dcache.overall_accesses::.cpu.data    126489632                       # number of overall (read+write) accesses
system.cpu.dcache.overall_accesses::total    126489632                       # number of overall (read+write) accesses
system.cpu.dcache.demand_miss_rate::.cpu.data     0.013768                       # miss rate for demand accesses
system.cpu.dcache.demand_miss_rate::total     0.013768                       # miss rate for demand accesses
system.cpu.dcache.overall_miss_rate::.cpu.data     0.013768                       # miss rate for overall accesses
system.cpu.dcache.overall_miss_rate::total     0.013768                       # miss rate for overall accesses
system.cpu.dcache.demand_avg_miss_latency::.cpu.data 61009.685151                       # average overall miss latency
system.cpu.dcache.demand_avg_miss_latency::total 61009.685151                       # average overall miss latency
system.cpu.dcache.overall_avg_miss_latency::.cpu.data 61009.685151                       # average overall miss latency
system.cpu.dcache.overall_avg_miss_latency::total 61009.685151                       # average overall miss latency
system.cpu.dcache.blocked_cycles::no_mshrs            0                       # number of cycles access was blocked
system.cpu.dcache.blocked_cycles::no_targets            0                       # number of cycles access was blocked
system.cpu.dcache.blocked::no_mshrs                 0                       # number of cycles access was blocked
system.cpu.dcache.blocked::no_targets               0                       # number of cycles access was blocked
system.cpu.dcache.avg_blocked_cycles::no_mshrs          nan                       # average number of cycles each access was blocked
system.cpu.dcache.avg_blocked_cycles::no_targets          nan                       # average number of cycles each access was blocked
system.cpu.dcache.writebacks::.writebacks       720580                       # number of writebacks
system.cpu.dcache.writebacks::total            720580                       # number of writebacks
system.cpu.dcache.demand_mshr_hits::.cpu.data       561774                       # number of demand (read+write) MSHR hits
system.cpu.dcache.demand_mshr_hits::total       561774                       # number of demand (read+write) MSHR hits
system.cpu.dcache.overall_mshr_hits::.cpu.data       561774                       # number of overall MSHR hits
system.cpu.dcache.overall_mshr_hits::total       561774                       # number of overall MSHR hits
system.cpu.dcache.demand_mshr_misses::.cpu.data      1179758                       # number of demand (read+write) MSHR misses
system.cpu.dcache.demand_mshr_misses::total      1179758                       # number of demand (read+write) MSHR misses
system.cpu.dcache.overall_mshr_misses::.cpu.data      1179758                       # number of overall MSHR misses
system.cpu.dcache.overall_mshr_misses::total      1179758                       # number of overall MSHR misses
system.cpu.dcache.overall_mshr_uncacheable_misses::.cpu.data          367                       # number of overall MSHR uncacheable misses
system.cpu.dcache.overall_mshr_uncacheable_misses::total          367                       # number of overall MSHR uncacheable misses
system.cpu.dcache.demand_mshr_miss_latency::.cpu.data  70852889000                       # number of demand (read+write) MSHR miss cycles
system.cpu.dcache.demand_mshr_miss_latency::total  70852889000                       # number of demand (read+write) MSHR miss cycles
system.cpu.dcache.overall_mshr_miss_latency::.cpu.data  70852889000                       # number of overall MSHR miss cycles
system.cpu.dcache.overall_mshr_miss_latency::total  70852889000                       # number of overall MSHR miss cycles
system.cpu.dcache.demand_mshr_miss_rate::.cpu.data     0.009327                       # mshr miss rate for demand accesses
system.cpu.dcache.demand_mshr_miss_rate::total     0.009327                       # mshr miss rate for demand accesses
system.cpu.dcache.overall_mshr_miss_rate::.cpu.data     0.009327                       # mshr miss rate for overall accesses
system.cpu.dcache.overall_mshr_miss_rate::total     0.009327                       # mshr miss rate for overall accesses
system.cpu.dcache.demand_avg_mshr_miss_latency::.cpu.data 60057.137989                       # average overall mshr miss latency
system.cpu.dcache.demand_avg_mshr_miss_latency::total 60057.137989                       # average overall mshr miss latency
system.cpu.dcache.overall_avg_mshr_miss_latency::.cpu.data 60057.137989                       # average overall mshr miss latency
system.cpu.dcache.overall_avg_mshr_miss_latency::total 60057.137989                       # average overall mshr miss latency
system.cpu.dcache.replacements                1185367                       # number of replacements
system.cpu.dcache.ReadReq_hits::.cpu.data     98229558                       # number of ReadReq hits
system.cpu.dcache.ReadReq_hits::total        98229558                       # number of ReadReq hits
system.cpu.dcache.ReadReq_misses::.cpu.data       821883                       # number of ReadReq misses
system.cpu.dcache.ReadReq_misses::total        821883                       # number of ReadReq misses
system.cpu.dcache.ReadReq_miss_latency::.cpu.data  51179347500                       # number of ReadReq miss cycles
system.cpu.dcache.ReadReq_miss_latency::total  51179347500                       # number of ReadReq miss cycles
system.cpu.dcache.ReadReq_accesses::.cpu.data     99051441                       # number of ReadReq accesses(hits+misses)
system.cpu.dcache.ReadReq_accesses::total     99051441                       # number of ReadReq accesses(hits+misses)
system.cpu.dcache.ReadReq_miss_rate::.cpu.data     0.008298                       # miss rate for ReadReq accesses
system.cpu.dcache.ReadReq_miss_rate::total     0.008298                       # miss rate for ReadReq accesses
system.cpu.dcache.ReadReq_avg_miss_latency::.cpu.data 62270.843295                       # average ReadReq miss latency
system.cpu.dcache.ReadReq_avg_miss_latency::total 62270.843295                       # average ReadReq miss latency
system.cpu.dcache.ReadReq_mshr_hits::.cpu.data       110483                       # number of ReadReq MSHR hits
system.cpu.dcache.ReadReq_mshr_hits::total       110483                       # number of ReadReq MSHR hits
system.cpu.dcache.ReadReq_mshr_misses::.cpu.data       711400                       # number of ReadReq MSHR misses
system.cpu.dcache.ReadReq_mshr_misses::total       711400                       # number of ReadReq MSHR misses
system.cpu.dcache.ReadReq_mshr_miss_latency::.cpu.data  43729265000                       # number of ReadReq MSHR miss cycles
system.cpu.dcache.ReadReq_mshr_miss_latency::total  43729265000                       # number of ReadReq MSHR miss cycles
system.cpu.dcache.ReadReq_mshr_miss_rate::.cpu.data     0.007182                       # mshr miss rate for ReadReq accesses
system.cpu.dcache.ReadReq_mshr_miss_rate::total     0.007182                       # mshr miss rate for ReadReq accesses
system.cpu.dcache.ReadReq_avg_mshr_miss_latency::.cpu.data 61469.307000                       # average ReadReq mshr miss latency
system.cpu.dcache.ReadReq_avg_mshr_miss_latency::total 61469.307000                       # average ReadReq mshr miss latency
system.cpu.dcache.WriteReq_hits::.cpu.data     26518542                       # number of WriteReq hits
system.cpu.dcache.WriteReq_hits::total       26518542                       # number of WriteReq hits
system.cpu.dcache.WriteReq_misses::.cpu.data       919649                       # number of WriteReq misses
system.cpu.dcache.WriteReq_misses::total       919649                       # number of WriteReq misses
system.cpu.dcache.WriteReq_miss_latency::.cpu.data  55070971500                       # number of WriteReq miss cycles
system.cpu.dcache.WriteReq_miss_latency::total  55070971500                       # number of WriteReq miss cycles
system.cpu.dcache.WriteReq_accesses::.cpu.data     27438191                       # number of WriteReq accesses(hits+misses)
system.cpu.dcache.WriteReq_accesses::total     27438191                       # number of WriteReq accesses(hits+misses)
system.cpu.dcache.WriteReq_miss_rate::.cpu.data     0.033517                       # miss rate for WriteReq accesses
system.cpu.dcache.WriteReq_miss_rate::total     0.033517                       # miss rate for WriteReq accesses
system.cpu.dcache.WriteReq_avg_miss_latency::.cpu.data 59882.598143                       # average WriteReq miss latency
system.cpu.dcache.WriteReq_avg_miss_latency::total 59882.598143                       # average WriteReq miss latency
system.cpu.dcache.WriteReq_mshr_hits::.cpu.data       451291                       # number of WriteReq MSHR hits
system.cpu.dcache.WriteReq_mshr_hits::total       451291                       # number of WriteReq MSHR hits
system.cpu.dcache.WriteReq_mshr_misses::.cpu.data       468358                       # number of WriteReq MSHR misses
system.cpu.dcache.WriteReq_mshr_misses::total       468358                       # number of WriteReq MSHR misses
system.cpu.dcache.WriteReq_mshr_uncacheable::.cpu.data          367                       # number of WriteReq MSHR uncacheable
system.cpu.dcache.WriteReq_mshr_uncacheable::total          367                       # number of WriteReq MSHR uncacheable
system.cpu.dcache.WriteReq_mshr_miss_latency::.cpu.data  27123624000                       # number of WriteReq MSHR miss cycles
system.cpu.dcache.WriteReq_mshr_miss_latency::total  27123624000                       # number of WriteReq MSHR miss cycles
system.cpu.dcache.WriteReq_mshr_miss_rate::.cpu.data     0.017070                       # mshr miss rate for WriteReq accesses
system.cpu.dcache.WriteReq_mshr_miss_rate::total     0.017070                       # mshr miss rate for WriteReq accesses
system.cpu.dcache.WriteReq_avg_mshr_miss_latency::.cpu.data 57912.161210                       # average WriteReq mshr miss latency
system.cpu.dcache.WriteReq_avg_mshr_miss_latency::total 57912.161210                       # average WriteReq mshr miss latency
system.cpu.dcache.LoadLockedReq_hits::.cpu.data        77754                       # number of LoadLockedReq hits
system.cpu.dcache.LoadLockedReq_hits::total        77754                       # number of LoadLockedReq hits
system.cpu.dcache.LoadLockedReq_misses::.cpu.data         5610                       # number of LoadLockedReq misses
system.cpu.dcache.LoadLockedReq_misses::total         5610                       # number of LoadLockedReq misses
system.cpu.dcache.LoadLockedReq_miss_latency::.cpu.data    405648500                       # number of LoadLockedReq miss cycles
system.cpu.dcache.LoadLockedReq_miss_latency::total    405648500                       # number of LoadLockedReq miss cycles
system.cpu.dcache.LoadLockedReq_accesses::.cpu.data        83364                       # number of LoadLockedReq accesses(hits+misses)
system.cpu.dcache.LoadLockedReq_accesses::total        83364                       # number of LoadLockedReq accesses(hits+misses)
system.cpu.dcache.LoadLockedReq_miss_rate::.cpu.data     0.067295                       # miss rate for LoadLockedReq accesses
system.cpu.dcache.LoadLockedReq_miss_rate::total     0.067295                       # miss rate for LoadLockedReq accesses
system.cpu.dcache.LoadLockedReq_avg_miss_latency::.cpu.data 72308.110517                       # average LoadLockedReq miss latency
system.cpu.dcache.LoadLockedReq_avg_miss_latency::total 72308.110517                       # average LoadLockedReq miss latency
system.cpu.dcache.LoadLockedReq_mshr_misses::.cpu.data         5610                       # number of LoadLockedReq MSHR misses
system.cpu.dcache.LoadLockedReq_mshr_misses::total         5610                       # number of LoadLockedReq MSHR misses
system.cpu.dcache.LoadLockedReq_mshr_miss_latency::.cpu.data    400038500                       # number of LoadLockedReq MSHR miss cycles
system.cpu.dcache.LoadLockedReq_mshr_miss_latency::total    400038500                       # number of LoadLockedReq MSHR miss cycles
system.cpu.dcache.LoadLockedReq_mshr_miss_rate::.cpu.data     0.067295                       # mshr miss rate for LoadLockedReq accesses
system.cpu.dcache.LoadLockedReq_mshr_miss_rate::total     0.067295                       # mshr miss rate for LoadLockedReq accesses
system.cpu.dcache.LoadLockedReq_avg_mshr_miss_latency::.cpu.data 71308.110517                       # average LoadLockedReq mshr miss latency
system.cpu.dcache.LoadLockedReq_avg_mshr_miss_latency::total 71308.110517                       # average LoadLockedReq mshr miss latency
system.cpu.dcache.StoreCondReq_hits::.cpu.data        83268                       # number of StoreCondReq hits
system.cpu.dcache.StoreCondReq_hits::total        83268                       # number of StoreCondReq hits
system.cpu.dcache.StoreCondReq_accesses::.cpu.data        83268                       # number of StoreCondReq accesses(hits+misses)
system.cpu.dcache.StoreCondReq_accesses::total        83268                       # number of StoreCondReq accesses(hits+misses)
system.cpu.dcache.tags.pwrStateResidencyTicks::UNDEFINED 357780785000                       # Cumulative time (in ticks) in various power states
system.cpu.dcache.tags.tagsinuse                 1024                       # Cycle average of tags in use
system.cpu.dcache.tags.total_refs           126516452                       # Total number of references to valid blocks.
system.cpu.dcache.tags.sampled_refs           1186391                       # Sample count of references to valid blocks.
system.cpu.dcache.tags.avg_refs            106.639760                       # Average number of references to valid blocks.
system.cpu.dcache.tags.warmup_cycle                 0                       # Cycle when the warmup percentage was hit.
system.cpu.dcache.tags.occ_blocks::.cpu.data         1024                       # Average occupied blocks per requestor
system.cpu.dcache.tags.occ_percent::.cpu.data            1                       # Average percentage of cache occupancy
system.cpu.dcache.tags.occ_percent::total            1                       # Average percentage of cache occupancy
system.cpu.dcache.tags.occ_task_id_blocks::1024         1024                       # Occupied blocks per task id
system.cpu.dcache.tags.age_task_id_blocks_1024::0           94                       # Occupied blocks per task id
system.cpu.dcache.tags.age_task_id_blocks_1024::1          224                       # Occupied blocks per task id
system.cpu.dcache.tags.age_task_id_blocks_1024::2          665                       # Occupied blocks per task id
system.cpu.dcache.tags.age_task_id_blocks_1024::3           41                       # Occupied blocks per task id
system.cpu.dcache.tags.occ_task_id_percent::1024            1                       # Percentage of cache occupancy per task id
system.cpu.dcache.tags.tag_accesses         254497895                       # Number of tag accesses
system.cpu.dcache.tags.data_accesses        254497895                       # Number of data accesses

---------- End Simulation Statistics   ----------
