
---------- Begin Simulation Statistics ----------
final_tick                               2541989517500                       # Number of ticks from beginning of simulation (restored from checkpoints and never reset)
host_inst_rate                                 219236                       # Simulator instruction rate (inst/s)
host_mem_usage                                 740736                       # Number of bytes of host memory used
host_op_rate                                   219235                       # Simulator op (including micro ops) rate (op/s)
host_seconds                                    19.13                       # Real time elapsed on the host
host_tick_rate                              626210488                       # Simulator tick rate (ticks/s)
sim_freq                                 1000000000000                       # Frequency of simulated ticks
sim_insts                                     4194048                       # Number of instructions simulated
sim_ops                                       4194048                       # Number of ops (including micro ops) simulated
sim_seconds                                  0.011980                       # Number of seconds simulated
sim_ticks                                 11979672500                       # Number of ticks simulated
system.cpu.branchPred.BTBCorrect                    0                       # Number of correct BTB predictions (this stat may not work properly.
system.cpu.branchPred.BTBHitPct             46.844203                       # BTB Hit Percentage
system.cpu.branchPred.BTBHits                  417632                       # Number of BTB hits
system.cpu.branchPred.BTBLookups               891534                       # Number of BTB lookups
system.cpu.branchPred.RASInCorrect               2358                       # Number of incorrect RAS predictions.
system.cpu.branchPred.condIncorrect             93588                       # Number of conditional branches incorrect
system.cpu.branchPred.condPredicted            815618                       # Number of conditional branches predicted
system.cpu.branchPred.indirectHits              53065                       # Number of indirect target hits.
system.cpu.branchPred.indirectLookups          278289                       # Number of indirect predictor lookups.
system.cpu.branchPred.indirectMisses           225224                       # Number of indirect misses.
system.cpu.branchPred.lookups                  993347                       # Number of BP lookups
system.cpu.branchPred.usedRAS                   65922                       # Number of times the RAS was used to get a target.
system.cpu.branchPredindirectMispredicted        26909                       # Number of mispredicted indirect branches.
system.cpu.committedInsts                     4194048                       # Number of instructions committed
system.cpu.committedOps                       4194048                       # Number of ops (including micro ops) committed
system.cpu.cpi                               5.709455                       # CPI: cycles per instruction
system.cpu.discardedOps                        200442                       # Number of ops (including micro ops) which were discarded before commit
system.cpu.dtb.data_accesses                   608483                       # DTB accesses
system.cpu.dtb.data_acv                           130                       # DTB access violations
system.cpu.dtb.data_hits                      1455303                       # DTB hits
system.cpu.dtb.data_misses                       7343                       # DTB misses
system.cpu.dtb.fetch_accesses                       0                       # ITB accesses
system.cpu.dtb.fetch_acv                            0                       # ITB acv
system.cpu.dtb.fetch_hits                           0                       # ITB hits
system.cpu.dtb.fetch_misses                         0                       # ITB misses
system.cpu.dtb.read_accesses                   407100                       # DTB read accesses
system.cpu.dtb.read_acv                            43                       # DTB read access violations
system.cpu.dtb.read_hits                       852924                       # DTB read hits
system.cpu.dtb.read_misses                       6544                       # DTB read misses
system.cpu.dtb.write_accesses                  201383                       # DTB write accesses
system.cpu.dtb.write_acv                           87                       # DTB write access violations
system.cpu.dtb.write_hits                      602379                       # DTB write hits
system.cpu.dtb.write_misses                       799                       # DTB write misses
system.cpu.fetch2.amo_instructions                  0                       # Number of memory atomic instructions successfully decoded
system.cpu.fetch2.fp_instructions               18028                       # Number of floating point instructions successfully decoded
system.cpu.fetch2.int_instructions            3431438                       # Number of integer instructions successfully decoded
system.cpu.fetch2.load_instructions           1053796                       # Number of memory load instructions successfully decoded
system.cpu.fetch2.store_instructions           664698                       # Number of memory store instructions successfully decoded
system.cpu.fetch2.vec_instructions                  0                       # Number of SIMD instructions successfully decoded
system.cpu.idleCycles                        16770372                       # Total number of cycles that the object has spent stopped
system.cpu.ipc                               0.175148                       # IPC: instructions per cycle
system.cpu.itb.data_accesses                        0                       # DTB accesses
system.cpu.itb.data_acv                             0                       # DTB access violations
system.cpu.itb.data_hits                            0                       # DTB hits
system.cpu.itb.data_misses                          0                       # DTB misses
system.cpu.itb.fetch_accesses                 1026235                       # ITB accesses
system.cpu.itb.fetch_acv                          768                       # ITB acv
system.cpu.itb.fetch_hits                     1019109                       # ITB hits
system.cpu.itb.fetch_misses                      7126                       # ITB misses
system.cpu.itb.read_accesses                        0                       # DTB read accesses
system.cpu.itb.read_acv                             0                       # DTB read access violations
system.cpu.itb.read_hits                            0                       # DTB read hits
system.cpu.itb.read_misses                          0                       # DTB read misses
system.cpu.itb.write_accesses                       0                       # DTB write accesses
system.cpu.itb.write_acv                            0                       # DTB write access violations
system.cpu.itb.write_hits                           0                       # DTB write hits
system.cpu.itb.write_misses                         0                       # DTB write misses
system.cpu.kern.callpal::swpctx                   574      9.47%      9.47% # number of callpals executed
system.cpu.kern.callpal::tbi                       25      0.41%      9.88% # number of callpals executed
system.cpu.kern.callpal::swpipl                  4200     69.27%     79.15% # number of callpals executed
system.cpu.kern.callpal::rdps                      48      0.79%     79.94% # number of callpals executed
system.cpu.kern.callpal::wrusp                      4      0.07%     80.01% # number of callpals executed
system.cpu.kern.callpal::rdusp                      3      0.05%     80.06% # number of callpals executed
system.cpu.kern.callpal::rti                      896     14.78%     94.84% # number of callpals executed
system.cpu.kern.callpal::callsys                  235      3.88%     98.71% # number of callpals executed
system.cpu.kern.callpal::imb                       78      1.29%    100.00% # number of callpals executed
system.cpu.kern.callpal::total                   6063                       # number of callpals executed
system.cpu.kern.inst.arm                            0                       # number of arm instructions executed
system.cpu.kern.inst.hwrei                      14406                       # number of hwrei instructions executed
system.cpu.kern.inst.quiesce                        9                       # number of quiesce instructions executed
system.cpu.kern.ipl_count::0                     2426     47.45%     47.45% # number of times we switched to this ipl
system.cpu.kern.ipl_count::21                       5      0.10%     47.55% # number of times we switched to this ipl
system.cpu.kern.ipl_count::22                      12      0.23%     47.78% # number of times we switched to this ipl
system.cpu.kern.ipl_count::31                    2670     52.22%    100.00% # number of times we switched to this ipl
system.cpu.kern.ipl_count::total                 5113                       # number of times we switched to this ipl
system.cpu.kern.ipl_good::0                      2413     49.82%     49.82% # number of times we switched to this ipl from a different ipl
system.cpu.kern.ipl_good::21                        5      0.10%     49.93% # number of times we switched to this ipl from a different ipl
system.cpu.kern.ipl_good::22                       12      0.25%     50.18% # number of times we switched to this ipl from a different ipl
system.cpu.kern.ipl_good::31                     2413     49.82%    100.00% # number of times we switched to this ipl from a different ipl
system.cpu.kern.ipl_good::total                  4843                       # number of times we switched to this ipl from a different ipl
system.cpu.kern.ipl_ticks::0              11065904500     92.34%     92.34% # number of cycles we spent at this ipl
system.cpu.kern.ipl_ticks::21                 8988000      0.07%     92.41% # number of cycles we spent at this ipl
system.cpu.kern.ipl_ticks::22                17193000      0.14%     92.56% # number of cycles we spent at this ipl
system.cpu.kern.ipl_ticks::31               891997500      7.44%    100.00% # number of cycles we spent at this ipl
system.cpu.kern.ipl_ticks::total          11984083000                       # number of cycles we spent at this ipl
system.cpu.kern.ipl_used::0                  0.994641                       # fraction of swpipl calls that actually changed the ipl
system.cpu.kern.ipl_used::21                        1                       # fraction of swpipl calls that actually changed the ipl
system.cpu.kern.ipl_used::22                        1                       # fraction of swpipl calls that actually changed the ipl
system.cpu.kern.ipl_used::31                 0.903745                       # fraction of swpipl calls that actually changed the ipl
system.cpu.kern.ipl_used::total              0.947193                       # fraction of swpipl calls that actually changed the ipl
system.cpu.kern.mode_good::kernel                 867                      
system.cpu.kern.mode_good::user                   867                      
system.cpu.kern.mode_good::idle                     0                      
system.cpu.kern.mode_switch::kernel              1470                       # number of protection mode switches
system.cpu.kern.mode_switch::user                 867                       # number of protection mode switches
system.cpu.kern.mode_switch::idle                   0                       # number of protection mode switches
system.cpu.kern.mode_switch_good::kernel     0.589796                       # fraction of useful protection mode switches
system.cpu.kern.mode_switch_good::user              1                       # fraction of useful protection mode switches
system.cpu.kern.mode_switch_good::idle            nan                       # fraction of useful protection mode switches
system.cpu.kern.mode_switch_good::total      0.741977                       # fraction of useful protection mode switches
system.cpu.kern.mode_ticks::kernel         8061593000     67.27%     67.27% # number of ticks spent at the given mode
system.cpu.kern.mode_ticks::user           3922490000     32.73%    100.00% # number of ticks spent at the given mode
system.cpu.kern.mode_ticks::idle                    0      0.00%    100.00% # number of ticks spent at the given mode
system.cpu.kern.swap_context                      574                       # number of times the context was actually changed
system.cpu.numCycles                         23945728                       # number of cpu cycles simulated
system.cpu.numFetchSuspends                         9                       # Number of times Execute suspended instruction fetching
system.cpu.numWorkItemsCompleted                    0                       # number of work items this cpu completed
system.cpu.numWorkItemsStarted                      0                       # number of work items this cpu started
system.cpu.op_class_0::No_OpClass               85396      2.04%      2.04% # Class of committed instruction
system.cpu.op_class_0::IntAlu                 2540396     60.57%     62.61% # Class of committed instruction
system.cpu.op_class_0::IntMult                   3673      0.09%     62.70% # Class of committed instruction
system.cpu.op_class_0::IntDiv                       0      0.00%     62.70% # Class of committed instruction
system.cpu.op_class_0::FloatAdd                  8286      0.20%     62.89% # Class of committed instruction
system.cpu.op_class_0::FloatCmp                     0      0.00%     62.89% # Class of committed instruction
system.cpu.op_class_0::FloatCvt                     0      0.00%     62.89% # Class of committed instruction
system.cpu.op_class_0::FloatMult                    0      0.00%     62.89% # Class of committed instruction
system.cpu.op_class_0::FloatMultAcc                 0      0.00%     62.89% # Class of committed instruction
system.cpu.op_class_0::FloatDiv                  1593      0.04%     62.93% # Class of committed instruction
system.cpu.op_class_0::FloatMisc                    0      0.00%     62.93% # Class of committed instruction
system.cpu.op_class_0::FloatSqrt                    0      0.00%     62.93% # Class of committed instruction
system.cpu.op_class_0::SimdAdd                      0      0.00%     62.93% # Class of committed instruction
system.cpu.op_class_0::SimdAddAcc                   0      0.00%     62.93% # Class of committed instruction
system.cpu.op_class_0::SimdAlu                      0      0.00%     62.93% # Class of committed instruction
system.cpu.op_class_0::SimdCmp                      0      0.00%     62.93% # Class of committed instruction
system.cpu.op_class_0::SimdCvt                      0      0.00%     62.93% # Class of committed instruction
system.cpu.op_class_0::SimdMisc                     0      0.00%     62.93% # Class of committed instruction
system.cpu.op_class_0::SimdMult                     0      0.00%     62.93% # Class of committed instruction
system.cpu.op_class_0::SimdMultAcc                  0      0.00%     62.93% # Class of committed instruction
system.cpu.op_class_0::SimdShift                    0      0.00%     62.93% # Class of committed instruction
system.cpu.op_class_0::SimdShiftAcc                 0      0.00%     62.93% # Class of committed instruction
system.cpu.op_class_0::SimdDiv                      0      0.00%     62.93% # Class of committed instruction
system.cpu.op_class_0::SimdSqrt                     0      0.00%     62.93% # Class of committed instruction
system.cpu.op_class_0::SimdFloatAdd                 0      0.00%     62.93% # Class of committed instruction
system.cpu.op_class_0::SimdFloatAlu                 0      0.00%     62.93% # Class of committed instruction
system.cpu.op_class_0::SimdFloatCmp                 0      0.00%     62.93% # Class of committed instruction
system.cpu.op_class_0::SimdFloatCvt                 0      0.00%     62.93% # Class of committed instruction
system.cpu.op_class_0::SimdFloatDiv                 0      0.00%     62.93% # Class of committed instruction
system.cpu.op_class_0::SimdFloatMisc                0      0.00%     62.93% # Class of committed instruction
system.cpu.op_class_0::SimdFloatMult                0      0.00%     62.93% # Class of committed instruction
system.cpu.op_class_0::SimdFloatMultAcc             0      0.00%     62.93% # Class of committed instruction
system.cpu.op_class_0::SimdFloatSqrt                0      0.00%     62.93% # Class of committed instruction
system.cpu.op_class_0::SimdReduceAdd                0      0.00%     62.93% # Class of committed instruction
system.cpu.op_class_0::SimdReduceAlu                0      0.00%     62.93% # Class of committed instruction
system.cpu.op_class_0::SimdReduceCmp                0      0.00%     62.93% # Class of committed instruction
system.cpu.op_class_0::SimdFloatReduceAdd            0      0.00%     62.93% # Class of committed instruction
system.cpu.op_class_0::SimdFloatReduceCmp            0      0.00%     62.93% # Class of committed instruction
system.cpu.op_class_0::SimdAes                      0      0.00%     62.93% # Class of committed instruction
system.cpu.op_class_0::SimdAesMix                   0      0.00%     62.93% # Class of committed instruction
system.cpu.op_class_0::SimdSha1Hash                 0      0.00%     62.93% # Class of committed instruction
system.cpu.op_class_0::SimdSha1Hash2                0      0.00%     62.93% # Class of committed instruction
system.cpu.op_class_0::SimdSha256Hash               0      0.00%     62.93% # Class of committed instruction
system.cpu.op_class_0::SimdSha256Hash2              0      0.00%     62.93% # Class of committed instruction
system.cpu.op_class_0::SimdShaSigma2                0      0.00%     62.93% # Class of committed instruction
system.cpu.op_class_0::SimdShaSigma3                0      0.00%     62.93% # Class of committed instruction
system.cpu.op_class_0::SimdPredAlu                  0      0.00%     62.93% # Class of committed instruction
system.cpu.op_class_0::MemRead                 838872     20.00%     82.93% # Class of committed instruction
system.cpu.op_class_0::MemWrite                592293     14.12%     97.05% # Class of committed instruction
system.cpu.op_class_0::FloatMemRead              9988      0.24%     97.29% # Class of committed instruction
system.cpu.op_class_0::FloatMemWrite             8788      0.21%     97.50% # Class of committed instruction
system.cpu.op_class_0::IprAccess               104763      2.50%    100.00% # Class of committed instruction
system.cpu.op_class_0::InstPrefetch                 0      0.00%    100.00% # Class of committed instruction
system.cpu.op_class_0::total                  4194048                       # Class of committed instruction
system.cpu.quiesceCycles                        13617                       # Total number of cycles that CPU has spent quiesced or waiting for an interrupt
system.cpu.tickCycles                         7175356                       # Number of cycles that the object actually ticked
system.disk0.dma_read_bytes                         0                       # Number of bytes transfered via DMA reads (not PRD).
system.disk0.dma_read_full_pages                    0                       # Number of full page size DMA reads (not PRD).
system.disk0.dma_read_txs                           0                       # Number of DMA read transactions (not PRD).
system.disk0.dma_write_bytes                    12288                       # Number of bytes transfered via DMA writes.
system.disk0.dma_write_full_pages                   0                       # Number of full page size DMA writes.
system.disk0.dma_write_txs                          3                       # Number of DMA write transactions.
system.disk2.dma_read_bytes                         0                       # Number of bytes transfered via DMA reads (not PRD).
system.disk2.dma_read_full_pages                    0                       # Number of full page size DMA reads (not PRD).
system.disk2.dma_read_txs                           0                       # Number of DMA read transactions (not PRD).
system.disk2.dma_write_bytes                        0                       # Number of bytes transfered via DMA writes.
system.disk2.dma_write_full_pages                   0                       # Number of full page size DMA writes.
system.disk2.dma_write_txs                          0                       # Number of DMA write transactions.
system.membus.snoop_filter.hit_multi_requests          437                       # Number of requests hitting in the snoop filter with multiple (>1) holders of the requested data.
system.membus.snoop_filter.hit_multi_snoops            0                       # Number of snoops hitting in the snoop filter with multiple (>1) holders of the requested data.
system.membus.snoop_filter.hit_single_requests       156578                       # Number of requests hitting in the snoop filter with a single holder of the requested data.
system.membus.snoop_filter.hit_single_snoops            0                       # Number of snoops hitting in the snoop filter with a single holder of the requested data.
system.membus.snoop_filter.tot_requests        314765                       # Total number of requests made to the snoop filter.
system.membus.snoop_filter.tot_snoops               0                       # Total number of snoops made to the snoop filter.
system.tsunami.ethernet.coalescedRxDesc           nan                       # average number of RxDesc's coalesced into each post
system.tsunami.ethernet.coalescedRxIdle           nan                       # average number of RxIdle's coalesced into each post
system.tsunami.ethernet.coalescedRxOk             nan                       # average number of RxOk's coalesced into each post
system.tsunami.ethernet.coalescedRxOrn            nan                       # average number of RxOrn's coalesced into each post
system.tsunami.ethernet.coalescedSwi              nan                       # average number of Swi's coalesced into each post
system.tsunami.ethernet.coalescedTotal            nan                       # average number of interrupts coalesced into each post
system.tsunami.ethernet.coalescedTxDesc           nan                       # average number of TxDesc's coalesced into each post
system.tsunami.ethernet.coalescedTxIdle           nan                       # average number of TxIdle's coalesced into each post
system.tsunami.ethernet.coalescedTxOk             nan                       # average number of TxOk's coalesced into each post
system.tsunami.ethernet.descDMAReads                0                       # Number of descriptors the device read w/ DMA
system.tsunami.ethernet.descDMAWrites               0                       # Number of descriptors the device wrote w/ DMA
system.tsunami.ethernet.descDmaReadBytes            0                       # number of descriptor bytes read w/ DMA
system.tsunami.ethernet.descDmaWriteBytes            0                       # number of descriptor bytes write w/ DMA
system.tsunami.ethernet.droppedPackets              0                       # number of packets dropped
system.tsunami.ethernet.postedInterrupts            0                       # number of posts to CPU
system.tsunami.ethernet.postedRxDesc                0                       # number of RxDesc interrupts posted to CPU
system.tsunami.ethernet.postedRxIdle                0                       # number of rxIdle interrupts posted to CPU
system.tsunami.ethernet.postedRxOk                  0                       # number of RxOk interrupts posted to CPU
system.tsunami.ethernet.postedRxOrn                 0                       # number of RxOrn posted to CPU
system.tsunami.ethernet.postedSwi                   0                       # number of software interrupts posted to CPU
system.tsunami.ethernet.postedTxDesc                0                       # number of TxDesc interrupts posted to CPU
system.tsunami.ethernet.postedTxIdle                0                       # number of TxIdle interrupts posted to CPU
system.tsunami.ethernet.postedTxOk                  0                       # number of TxOk interrupts posted to CPU
system.tsunami.ethernet.totalRxDesc                 0                       # total number of RxDesc written to ISR
system.tsunami.ethernet.totalRxIdle                 0                       # total number of RxIdle written to ISR
system.tsunami.ethernet.totalRxOk                   0                       # total number of RxOk written to ISR
system.tsunami.ethernet.totalRxOrn                  0                       # total number of RxOrn written to ISR
system.tsunami.ethernet.totalSwi                    0                       # total number of Swi written to ISR
system.tsunami.ethernet.totalTxDesc                 0                       # total number of TxDesc written to ISR
system.tsunami.ethernet.totalTxIdle                 0                       # total number of TxIdle written to ISR
system.tsunami.ethernet.totalTxOk                   0                       # total number of TxOk written to ISR
system.bridge.pwrStateResidencyTicks::UNDEFINED 2541989517500                       # Cumulative time (in ticks) in various power states
system.voltage_domain.voltage                       1                       # Voltage in Volts
system.iocache.pwrStateResidencyTicks::UNDEFINED 2541989517500                       # Cumulative time (in ticks) in various power states
system.iocache.demand_misses::.tsunami.ide          195                       # number of demand (read+write) misses
system.iocache.demand_misses::total               195                       # number of demand (read+write) misses
system.iocache.overall_misses::.tsunami.ide          195                       # number of overall misses
system.iocache.overall_misses::total              195                       # number of overall misses
system.iocache.demand_miss_latency::.tsunami.ide     22830454                       # number of demand (read+write) miss cycles
system.iocache.demand_miss_latency::total     22830454                       # number of demand (read+write) miss cycles
system.iocache.overall_miss_latency::.tsunami.ide     22830454                       # number of overall miss cycles
system.iocache.overall_miss_latency::total     22830454                       # number of overall miss cycles
system.iocache.demand_accesses::.tsunami.ide          195                       # number of demand (read+write) accesses
system.iocache.demand_accesses::total             195                       # number of demand (read+write) accesses
system.iocache.overall_accesses::.tsunami.ide          195                       # number of overall (read+write) accesses
system.iocache.overall_accesses::total            195                       # number of overall (read+write) accesses
system.iocache.demand_miss_rate::.tsunami.ide            1                       # miss rate for demand accesses
system.iocache.demand_miss_rate::total              1                       # miss rate for demand accesses
system.iocache.overall_miss_rate::.tsunami.ide            1                       # miss rate for overall accesses
system.iocache.overall_miss_rate::total             1                       # miss rate for overall accesses
system.iocache.demand_avg_miss_latency::.tsunami.ide 117079.251282                       # average overall miss latency
system.iocache.demand_avg_miss_latency::total 117079.251282                       # average overall miss latency
system.iocache.overall_avg_miss_latency::.tsunami.ide 117079.251282                       # average overall miss latency
system.iocache.overall_avg_miss_latency::total 117079.251282                       # average overall miss latency
system.iocache.blocked_cycles::no_mshrs             0                       # number of cycles access was blocked
system.iocache.blocked_cycles::no_targets            0                       # number of cycles access was blocked
system.iocache.blocked::no_mshrs                    0                       # number of cycles access was blocked
system.iocache.blocked::no_targets                  0                       # number of cycles access was blocked
system.iocache.avg_blocked_cycles::no_mshrs          nan                       # average number of cycles each access was blocked
system.iocache.avg_blocked_cycles::no_targets          nan                       # average number of cycles each access was blocked
system.iocache.writebacks::.writebacks            176                       # number of writebacks
system.iocache.writebacks::total                  176                       # number of writebacks
system.iocache.demand_mshr_misses::.tsunami.ide          195                       # number of demand (read+write) MSHR misses
system.iocache.demand_mshr_misses::total          195                       # number of demand (read+write) MSHR misses
system.iocache.overall_mshr_misses::.tsunami.ide          195                       # number of overall MSHR misses
system.iocache.overall_mshr_misses::total          195                       # number of overall MSHR misses
system.iocache.demand_mshr_miss_latency::.tsunami.ide     13069486                       # number of demand (read+write) MSHR miss cycles
system.iocache.demand_mshr_miss_latency::total     13069486                       # number of demand (read+write) MSHR miss cycles
system.iocache.overall_mshr_miss_latency::.tsunami.ide     13069486                       # number of overall MSHR miss cycles
system.iocache.overall_mshr_miss_latency::total     13069486                       # number of overall MSHR miss cycles
system.iocache.demand_mshr_miss_rate::.tsunami.ide            1                       # mshr miss rate for demand accesses
system.iocache.demand_mshr_miss_rate::total            1                       # mshr miss rate for demand accesses
system.iocache.overall_mshr_miss_rate::.tsunami.ide            1                       # mshr miss rate for overall accesses
system.iocache.overall_mshr_miss_rate::total            1                       # mshr miss rate for overall accesses
system.iocache.demand_avg_mshr_miss_latency::.tsunami.ide 67023.005128                       # average overall mshr miss latency
system.iocache.demand_avg_mshr_miss_latency::total 67023.005128                       # average overall mshr miss latency
system.iocache.overall_avg_mshr_miss_latency::.tsunami.ide 67023.005128                       # average overall mshr miss latency
system.iocache.overall_avg_mshr_miss_latency::total 67023.005128                       # average overall mshr miss latency
system.iocache.replacements                       179                       # number of replacements
system.iocache.ReadReq_misses::.tsunami.ide            3                       # number of ReadReq misses
system.iocache.ReadReq_misses::total                3                       # number of ReadReq misses
system.iocache.ReadReq_miss_latency::.tsunami.ide       349497                       # number of ReadReq miss cycles
system.iocache.ReadReq_miss_latency::total       349497                       # number of ReadReq miss cycles
system.iocache.ReadReq_accesses::.tsunami.ide            3                       # number of ReadReq accesses(hits+misses)
system.iocache.ReadReq_accesses::total              3                       # number of ReadReq accesses(hits+misses)
system.iocache.ReadReq_miss_rate::.tsunami.ide            1                       # miss rate for ReadReq accesses
system.iocache.ReadReq_miss_rate::total             1                       # miss rate for ReadReq accesses
system.iocache.ReadReq_avg_miss_latency::.tsunami.ide       116499                       # average ReadReq miss latency
system.iocache.ReadReq_avg_miss_latency::total       116499                       # average ReadReq miss latency
system.iocache.ReadReq_mshr_misses::.tsunami.ide            3                       # number of ReadReq MSHR misses
system.iocache.ReadReq_mshr_misses::total            3                       # number of ReadReq MSHR misses
system.iocache.ReadReq_mshr_miss_latency::.tsunami.ide       199497                       # number of ReadReq MSHR miss cycles
system.iocache.ReadReq_mshr_miss_latency::total       199497                       # number of ReadReq MSHR miss cycles
system.iocache.ReadReq_mshr_miss_rate::.tsunami.ide            1                       # mshr miss rate for ReadReq accesses
system.iocache.ReadReq_mshr_miss_rate::total            1                       # mshr miss rate for ReadReq accesses
system.iocache.ReadReq_avg_mshr_miss_latency::.tsunami.ide        66499                       # average ReadReq mshr miss latency
system.iocache.ReadReq_avg_mshr_miss_latency::total        66499                       # average ReadReq mshr miss latency
system.iocache.WriteLineReq_misses::.tsunami.ide          192                       # number of WriteLineReq misses
system.iocache.WriteLineReq_misses::total          192                       # number of WriteLineReq misses
system.iocache.WriteLineReq_miss_latency::.tsunami.ide     22480957                       # number of WriteLineReq miss cycles
system.iocache.WriteLineReq_miss_latency::total     22480957                       # number of WriteLineReq miss cycles
system.iocache.WriteLineReq_accesses::.tsunami.ide          192                       # number of WriteLineReq accesses(hits+misses)
system.iocache.WriteLineReq_accesses::total          192                       # number of WriteLineReq accesses(hits+misses)
system.iocache.WriteLineReq_miss_rate::.tsunami.ide            1                       # miss rate for WriteLineReq accesses
system.iocache.WriteLineReq_miss_rate::total            1                       # miss rate for WriteLineReq accesses
system.iocache.WriteLineReq_avg_miss_latency::.tsunami.ide 117088.317708                       # average WriteLineReq miss latency
system.iocache.WriteLineReq_avg_miss_latency::total 117088.317708                       # average WriteLineReq miss latency
system.iocache.WriteLineReq_mshr_misses::.tsunami.ide          192                       # number of WriteLineReq MSHR misses
system.iocache.WriteLineReq_mshr_misses::total          192                       # number of WriteLineReq MSHR misses
system.iocache.WriteLineReq_mshr_miss_latency::.tsunami.ide     12869989                       # number of WriteLineReq MSHR miss cycles
system.iocache.WriteLineReq_mshr_miss_latency::total     12869989                       # number of WriteLineReq MSHR miss cycles
system.iocache.WriteLineReq_mshr_miss_rate::.tsunami.ide            1                       # mshr miss rate for WriteLineReq accesses
system.iocache.WriteLineReq_mshr_miss_rate::total            1                       # mshr miss rate for WriteLineReq accesses
system.iocache.WriteLineReq_avg_mshr_miss_latency::.tsunami.ide 67031.192708                       # average WriteLineReq mshr miss latency
system.iocache.WriteLineReq_avg_mshr_miss_latency::total 67031.192708                       # average WriteLineReq mshr miss latency
system.iocache.tags.pwrStateResidencyTicks::UNDEFINED 2541989517500                       # Cumulative time (in ticks) in various power states
system.iocache.tags.tagsinuse                3.270827                       # Cycle average of tags in use
system.iocache.tags.total_refs                    179                       # Total number of references to valid blocks.
system.iocache.tags.sampled_refs                  179                       # Sample count of references to valid blocks.
system.iocache.tags.avg_refs                        1                       # Average number of references to valid blocks.
system.iocache.tags.warmup_cycle         2539539475000                       # Cycle when the warmup percentage was hit.
system.iocache.tags.occ_blocks::.tsunami.ide     3.270827                       # Average occupied blocks per requestor
system.iocache.tags.occ_percent::.tsunami.ide     0.204427                       # Average percentage of cache occupancy
system.iocache.tags.occ_percent::total       0.204427                       # Average percentage of cache occupancy
system.iocache.tags.occ_task_id_blocks::1023           16                       # Occupied blocks per task id
system.iocache.tags.age_task_id_blocks_1023::3           16                       # Occupied blocks per task id
system.iocache.tags.occ_task_id_percent::1023            1                       # Percentage of cache occupancy per task id
system.iocache.tags.tag_accesses                 1755                       # Number of tag accesses
system.iocache.tags.data_accesses                1755                       # Number of data accesses
system.membus.pwrStateResidencyTicks::UNDEFINED 2541989517500                       # Cumulative time (in ticks) in various power states
system.membus.trans_dist::ReadReq                 108                       # Transaction distribution
system.membus.trans_dist::ReadResp             129147                       # Transaction distribution
system.membus.trans_dist::WriteReq                 99                       # Transaction distribution
system.membus.trans_dist::WriteResp                99                       # Transaction distribution
system.membus.trans_dist::WritebackDirty        34840                       # Transaction distribution
system.membus.trans_dist::WritebackClean        87521                       # Transaction distribution
system.membus.trans_dist::CleanEvict            34197                       # Transaction distribution
system.membus.trans_dist::UpgradeReq               16                       # Transaction distribution
system.membus.trans_dist::ReadExReq             28958                       # Transaction distribution
system.membus.trans_dist::ReadExResp            28958                       # Transaction distribution
system.membus.trans_dist::ReadCleanReq          88112                       # Transaction distribution
system.membus.trans_dist::ReadSharedReq         40929                       # Transaction distribution
system.membus.trans_dist::BadAddressError            2                       # Transaction distribution
system.membus.trans_dist::InvalidateReq           192                       # Transaction distribution
system.membus.pkt_count_system.iocache.mem_side::system.mem_ctrls.port          374                       # Packet count per connected master and slave (bytes)
system.membus.pkt_count_system.iocache.mem_side::total          374                       # Packet count per connected master and slave (bytes)
system.membus.pkt_count_system.cpu.icache.mem_side::system.mem_ctrls.port       263683                       # Packet count per connected master and slave (bytes)
system.membus.pkt_count_system.cpu.icache.mem_side::total       263683                       # Packet count per connected master and slave (bytes)
system.membus.pkt_count_system.cpu.dcache.mem_side::system.bridge.slave          414                       # Packet count per connected master and slave (bytes)
system.membus.pkt_count_system.cpu.dcache.mem_side::system.mem_ctrls.port       208638                       # Packet count per connected master and slave (bytes)
system.membus.pkt_count_system.cpu.dcache.mem_side::system.membus.badaddr_responder.pio            4                       # Packet count per connected master and slave (bytes)
system.membus.pkt_count_system.cpu.dcache.mem_side::total       209056                       # Packet count per connected master and slave (bytes)
system.membus.pkt_count::total                 473113                       # Packet count per connected master and slave (bytes)
system.membus.pkt_size_system.iocache.mem_side::system.mem_ctrls.port        11264                       # Cumulative packet size per connected master and slave (bytes)
system.membus.pkt_size_system.iocache.mem_side::total        11264                       # Cumulative packet size per connected master and slave (bytes)
system.membus.pkt_size_system.cpu.icache.mem_side::system.mem_ctrls.port     11236544                       # Cumulative packet size per connected master and slave (bytes)
system.membus.pkt_size_system.cpu.icache.mem_side::total     11236544                       # Cumulative packet size per connected master and slave (bytes)
system.membus.pkt_size_system.cpu.dcache.mem_side::system.bridge.slave          433                       # Cumulative packet size per connected master and slave (bytes)
system.membus.pkt_size_system.cpu.dcache.mem_side::system.mem_ctrls.port      6690944                       # Cumulative packet size per connected master and slave (bytes)
system.membus.pkt_size_system.cpu.dcache.mem_side::total      6691377                       # Cumulative packet size per connected master and slave (bytes)
system.membus.pkt_size::total                17939185                       # Cumulative packet size per connected master and slave (bytes)
system.membus.snoops                               65                       # Total snoops (count)
system.membus.snoopTraffic                       4160                       # Total snoop traffic (bytes)
system.membus.snoop_fanout::samples            158414                       # Request fanout histogram
system.membus.snoop_fanout::mean             0.002765                       # Request fanout histogram
system.membus.snoop_fanout::stdev            0.052510                       # Request fanout histogram
system.membus.snoop_fanout::underflows              0      0.00%      0.00% # Request fanout histogram
system.membus.snoop_fanout::0                  157976     99.72%     99.72% # Request fanout histogram
system.membus.snoop_fanout::1                     438      0.28%    100.00% # Request fanout histogram
system.membus.snoop_fanout::2                       0      0.00%    100.00% # Request fanout histogram
system.membus.snoop_fanout::3                       0      0.00%    100.00% # Request fanout histogram
system.membus.snoop_fanout::overflows               0      0.00%    100.00% # Request fanout histogram
system.membus.snoop_fanout::min_value               0                       # Request fanout histogram
system.membus.snoop_fanout::max_value               1                       # Request fanout histogram
system.membus.snoop_fanout::total              158414                       # Request fanout histogram
system.membus.reqLayer0.occupancy              342500                       # Layer occupancy (ticks)
system.membus.reqLayer0.utilization               0.0                       # Layer utilization (%)
system.membus.reqLayer1.occupancy           826811034                       # Layer occupancy (ticks)
system.membus.reqLayer1.utilization               6.9                       # Layer utilization (%)
system.membus.reqLayer2.occupancy                2500                       # Layer occupancy (ticks)
system.membus.reqLayer2.utilization               0.0                       # Layer utilization (%)
system.membus.respLayer1.occupancy              17997                       # Layer occupancy (ticks)
system.membus.respLayer1.utilization              0.0                       # Layer utilization (%)
system.membus.respLayer3.occupancy          375936000                       # Layer occupancy (ticks)
system.membus.respLayer3.utilization              3.1                       # Layer utilization (%)
system.membus.badaddr_responder.pwrStateResidencyTicks::UNDEFINED 2541989517500                       # Cumulative time (in ticks) in various power states
system.membus.respLayer2.occupancy          467124250                       # Layer occupancy (ticks)
system.membus.respLayer2.utilization              3.9                       # Layer utilization (%)
system.clk_domain.clock                          1000                       # Clock period in ticks
system.tsunami.fake_uart1.pwrStateResidencyTicks::UNDEFINED 2541989517500                       # Cumulative time (in ticks) in various power states
system.tsunami.fake_uart2.pwrStateResidencyTicks::UNDEFINED 2541989517500                       # Cumulative time (in ticks) in various power states
system.tsunami.fake_uart3.pwrStateResidencyTicks::UNDEFINED 2541989517500                       # Cumulative time (in ticks) in various power states
system.tsunami.fake_uart4.pwrStateResidencyTicks::UNDEFINED 2541989517500                       # Cumulative time (in ticks) in various power states
system.tsunami.fake_ppc.pwrStateResidencyTicks::UNDEFINED 2541989517500                       # Cumulative time (in ticks) in various power states
system.tsunami.cchip.pwrStateResidencyTicks::UNDEFINED 2541989517500                       # Cumulative time (in ticks) in various power states
system.tsunami.io.pwrStateResidencyTicks::UNDEFINED 2541989517500                       # Cumulative time (in ticks) in various power states
system.tsunami.pchip.pwrStateResidencyTicks::UNDEFINED 2541989517500                       # Cumulative time (in ticks) in various power states
system.tsunami.fake_ata1.pwrStateResidencyTicks::UNDEFINED 2541989517500                       # Cumulative time (in ticks) in various power states
system.tsunami.fake_ata0.pwrStateResidencyTicks::UNDEFINED 2541989517500                       # Cumulative time (in ticks) in various power states
system.tsunami.backdoor.pwrStateResidencyTicks::UNDEFINED 2541989517500                       # Cumulative time (in ticks) in various power states
system.tsunami.fake_pnp_read3.pwrStateResidencyTicks::UNDEFINED 2541989517500                       # Cumulative time (in ticks) in various power states
system.tsunami.fake_pnp_read2.pwrStateResidencyTicks::UNDEFINED 2541989517500                       # Cumulative time (in ticks) in various power states
system.tsunami.fake_pnp_read1.pwrStateResidencyTicks::UNDEFINED 2541989517500                       # Cumulative time (in ticks) in various power states
system.tsunami.fake_pnp_read0.pwrStateResidencyTicks::UNDEFINED 2541989517500                       # Cumulative time (in ticks) in various power states
system.tsunami.fake_pnp_read7.pwrStateResidencyTicks::UNDEFINED 2541989517500                       # Cumulative time (in ticks) in various power states
system.tsunami.fake_pnp_read6.pwrStateResidencyTicks::UNDEFINED 2541989517500                       # Cumulative time (in ticks) in various power states
system.tsunami.fake_pnp_read5.pwrStateResidencyTicks::UNDEFINED 2541989517500                       # Cumulative time (in ticks) in various power states
system.tsunami.fake_pnp_read4.pwrStateResidencyTicks::UNDEFINED 2541989517500                       # Cumulative time (in ticks) in various power states
system.tsunami.fake_pnp_write.pwrStateResidencyTicks::UNDEFINED 2541989517500                       # Cumulative time (in ticks) in various power states
system.tsunami.fb.pwrStateResidencyTicks::UNDEFINED 2541989517500                       # Cumulative time (in ticks) in various power states
system.tsunami.fake_pnp_addr.pwrStateResidencyTicks::UNDEFINED 2541989517500                       # Cumulative time (in ticks) in various power states
system.tsunami.fake_OROM.pwrStateResidencyTicks::UNDEFINED 2541989517500                       # Cumulative time (in ticks) in various power states
system.tsunami.uart.pwrStateResidencyTicks::UNDEFINED 2541989517500                       # Cumulative time (in ticks) in various power states
system.tsunami.fake_sm_chip.pwrStateResidencyTicks::UNDEFINED 2541989517500                       # Cumulative time (in ticks) in various power states
system.tsunami.ethernet.pwrStateResidencyTicks::UNDEFINED 2541989517500                       # Cumulative time (in ticks) in various power states
system.tsunami.ide.pwrStateResidencyTicks::UNDEFINED 2541989517500                       # Cumulative time (in ticks) in various power states
system.cpu_voltage_domain.voltage                   1                       # Voltage in Volts
system.mem_ctrls.pwrStateResidencyTicks::UNDEFINED 2541989517500                       # Cumulative time (in ticks) in various power states
system.mem_ctrls.bytes_read::.cpu.inst        5635200                       # Number of bytes read from this memory
system.mem_ctrls.bytes_read::.cpu.data        4472448                       # Number of bytes read from this memory
system.mem_ctrls.bytes_read::total           10107648                       # Number of bytes read from this memory
system.mem_ctrls.bytes_inst_read::.cpu.inst      5635200                       # Number of instructions bytes read from this memory
system.mem_ctrls.bytes_inst_read::total       5635200                       # Number of instructions bytes read from this memory
system.mem_ctrls.bytes_written::.writebacks      2229760                       # Number of bytes written to this memory
system.mem_ctrls.bytes_written::total         2229760                       # Number of bytes written to this memory
system.mem_ctrls.num_reads::.cpu.inst           88050                       # Number of read requests responded to by this memory
system.mem_ctrls.num_reads::.cpu.data           69882                       # Number of read requests responded to by this memory
system.mem_ctrls.num_reads::total              157932                       # Number of read requests responded to by this memory
system.mem_ctrls.num_writes::.writebacks        34840                       # Number of write requests responded to by this memory
system.mem_ctrls.num_writes::total              34840                       # Number of write requests responded to by this memory
system.mem_ctrls.bw_read::.cpu.inst         470396833                       # Total read bandwidth from this memory (bytes/s)
system.mem_ctrls.bw_read::.cpu.data         373336416                       # Total read bandwidth from this memory (bytes/s)
system.mem_ctrls.bw_read::total             843733249                       # Total read bandwidth from this memory (bytes/s)
system.mem_ctrls.bw_inst_read::.cpu.inst    470396833                       # Instruction read bandwidth from this memory (bytes/s)
system.mem_ctrls.bw_inst_read::total        470396833                       # Instruction read bandwidth from this memory (bytes/s)
system.mem_ctrls.bw_write::.writebacks      186128627                       # Write bandwidth from this memory (bytes/s)
system.mem_ctrls.bw_write::total            186128627                       # Write bandwidth from this memory (bytes/s)
system.mem_ctrls.bw_total::.writebacks      186128627                       # Total bandwidth to/from this memory (bytes/s)
system.mem_ctrls.bw_total::.cpu.inst        470396833                       # Total bandwidth to/from this memory (bytes/s)
system.mem_ctrls.bw_total::.cpu.data        373336416                       # Total bandwidth to/from this memory (bytes/s)
system.mem_ctrls.bw_total::total           1029861876                       # Total bandwidth to/from this memory (bytes/s)
system.mem_ctrls.avgPriority_.writebacks::samples    119929.00                       # Average QoS priority value for accepted requests
system.mem_ctrls.avgPriority_.cpu.inst::samples     77933.00                       # Average QoS priority value for accepted requests
system.mem_ctrls.avgPriority_.cpu.data::samples     69360.00                       # Average QoS priority value for accepted requests
system.mem_ctrls.priorityMinLatency      0.000000018750                       # per QoS priority minimum request to response latency (s)
system.mem_ctrls.priorityMaxLatency      0.000159786750                       # per QoS priority maximum request to response latency (s)
system.mem_ctrls.numReadWriteTurnArounds         7373                       # Number of turnarounds from READ to WRITE
system.mem_ctrls.numWriteReadTurnArounds         7373                       # Number of turnarounds from WRITE to READ
system.mem_ctrls.numStayReadState              408963                       # Number of times bus staying in READ state
system.mem_ctrls.numStayWriteState             112619                       # Number of times bus staying in WRITE state
system.mem_ctrls.readReqs                      157932                       # Number of read requests accepted
system.mem_ctrls.writeReqs                     122144                       # Number of write requests accepted
system.mem_ctrls.readBursts                    157932                       # Number of DRAM read bursts, including those serviced by the write queue
system.mem_ctrls.writeBursts                   122144                       # Number of DRAM write bursts, including those merged in the write queue
system.mem_ctrls.servicedByWrQ                  10639                       # Number of DRAM read bursts serviced by the write queue
system.mem_ctrls.mergedWrBursts                  2215                       # Number of DRAM write bursts merged with an existing one
system.mem_ctrls.neitherReadNorWriteReqs            0                       # Number of requests that are neither read nor write
system.mem_ctrls.perBankRdBursts::0              8850                       # Per bank write bursts
system.mem_ctrls.perBankRdBursts::1              6720                       # Per bank write bursts
system.mem_ctrls.perBankRdBursts::2             10103                       # Per bank write bursts
system.mem_ctrls.perBankRdBursts::3              7106                       # Per bank write bursts
system.mem_ctrls.perBankRdBursts::4              8682                       # Per bank write bursts
system.mem_ctrls.perBankRdBursts::5             10044                       # Per bank write bursts
system.mem_ctrls.perBankRdBursts::6              8653                       # Per bank write bursts
system.mem_ctrls.perBankRdBursts::7              8720                       # Per bank write bursts
system.mem_ctrls.perBankRdBursts::8             11842                       # Per bank write bursts
system.mem_ctrls.perBankRdBursts::9              9246                       # Per bank write bursts
system.mem_ctrls.perBankRdBursts::10            10603                       # Per bank write bursts
system.mem_ctrls.perBankRdBursts::11            11996                       # Per bank write bursts
system.mem_ctrls.perBankRdBursts::12             8842                       # Per bank write bursts
system.mem_ctrls.perBankRdBursts::13            13544                       # Per bank write bursts
system.mem_ctrls.perBankRdBursts::14             5535                       # Per bank write bursts
system.mem_ctrls.perBankRdBursts::15             6807                       # Per bank write bursts
system.mem_ctrls.perBankWrBursts::0              7249                       # Per bank write bursts
system.mem_ctrls.perBankWrBursts::1              4538                       # Per bank write bursts
system.mem_ctrls.perBankWrBursts::2              8833                       # Per bank write bursts
system.mem_ctrls.perBankWrBursts::3              7942                       # Per bank write bursts
system.mem_ctrls.perBankWrBursts::4              7861                       # Per bank write bursts
system.mem_ctrls.perBankWrBursts::5              9874                       # Per bank write bursts
system.mem_ctrls.perBankWrBursts::6              7500                       # Per bank write bursts
system.mem_ctrls.perBankWrBursts::7              6900                       # Per bank write bursts
system.mem_ctrls.perBankWrBursts::8             10595                       # Per bank write bursts
system.mem_ctrls.perBankWrBursts::9              8411                       # Per bank write bursts
system.mem_ctrls.perBankWrBursts::10             7910                       # Per bank write bursts
system.mem_ctrls.perBankWrBursts::11             8028                       # Per bank write bursts
system.mem_ctrls.perBankWrBursts::12             5443                       # Per bank write bursts
system.mem_ctrls.perBankWrBursts::13             9932                       # Per bank write bursts
system.mem_ctrls.perBankWrBursts::14             3184                       # Per bank write bursts
system.mem_ctrls.perBankWrBursts::15             5703                       # Per bank write bursts
system.mem_ctrls.avgRdQLen                       1.09                       # Average read queue length when enqueuing
system.mem_ctrls.avgWrQLen                      25.69                       # Average write queue length when enqueuing
system.mem_ctrls.totQLat                   2018793250                       # Total ticks spent queuing
system.mem_ctrls.totBusLat                  736465000                       # Total ticks spent in databus transfers
system.mem_ctrls.totMemAccLat              4780537000                       # Total ticks spent from burst creation until serviced by the DRAM
system.mem_ctrls.avgQLat                     13705.97                       # Average queueing delay per DRAM burst
system.mem_ctrls.avgBusLat                    5000.00                       # Average bus latency per DRAM burst
system.mem_ctrls.avgMemAccLat                32455.97                       # Average memory access latency per DRAM burst
system.mem_ctrls.numRdRetry                         0                       # Number of times read queue was full causing retry
system.mem_ctrls.numWrRetry                         0                       # Number of times write queue was full causing retry
system.mem_ctrls.readRowHits                   104239                       # Number of row buffer hits during reads
system.mem_ctrls.writeRowHits                   80835                       # Number of row buffer hits during writes
system.mem_ctrls.readRowHitRate                 70.77                       # Row buffer hit rate for reads
system.mem_ctrls.writeRowHitRate                67.40                       # Row buffer hit rate for writes
system.mem_ctrls.readPktSize::0                     0                       # Read request sizes (log2)
system.mem_ctrls.readPktSize::1                     0                       # Read request sizes (log2)
system.mem_ctrls.readPktSize::2                     0                       # Read request sizes (log2)
system.mem_ctrls.readPktSize::3                     0                       # Read request sizes (log2)
system.mem_ctrls.readPktSize::4                     0                       # Read request sizes (log2)
system.mem_ctrls.readPktSize::5                     0                       # Read request sizes (log2)
system.mem_ctrls.readPktSize::6                157932                       # Read request sizes (log2)
system.mem_ctrls.writePktSize::0                    0                       # Write request sizes (log2)
system.mem_ctrls.writePktSize::1                    0                       # Write request sizes (log2)
system.mem_ctrls.writePktSize::2                    0                       # Write request sizes (log2)
system.mem_ctrls.writePktSize::3                    0                       # Write request sizes (log2)
system.mem_ctrls.writePktSize::4                    0                       # Write request sizes (log2)
system.mem_ctrls.writePktSize::5                    0                       # Write request sizes (log2)
system.mem_ctrls.writePktSize::6               122144                       # Write request sizes (log2)
system.mem_ctrls.rdQLenPdf::0                  134674                       # What read queue length does an incoming req see
system.mem_ctrls.rdQLenPdf::1                   12303                       # What read queue length does an incoming req see
system.mem_ctrls.rdQLenPdf::2                     316                       # What read queue length does an incoming req see
system.mem_ctrls.rdQLenPdf::3                       0                       # What read queue length does an incoming req see
system.mem_ctrls.rdQLenPdf::4                       0                       # What read queue length does an incoming req see
system.mem_ctrls.rdQLenPdf::5                       0                       # What read queue length does an incoming req see
system.mem_ctrls.rdQLenPdf::6                       0                       # What read queue length does an incoming req see
system.mem_ctrls.rdQLenPdf::7                       0                       # What read queue length does an incoming req see
system.mem_ctrls.rdQLenPdf::8                       0                       # What read queue length does an incoming req see
system.mem_ctrls.rdQLenPdf::9                       0                       # What read queue length does an incoming req see
system.mem_ctrls.rdQLenPdf::10                      0                       # What read queue length does an incoming req see
system.mem_ctrls.rdQLenPdf::11                      0                       # What read queue length does an incoming req see
system.mem_ctrls.rdQLenPdf::12                      0                       # What read queue length does an incoming req see
system.mem_ctrls.rdQLenPdf::13                      0                       # What read queue length does an incoming req see
system.mem_ctrls.rdQLenPdf::14                      0                       # What read queue length does an incoming req see
system.mem_ctrls.rdQLenPdf::15                      0                       # What read queue length does an incoming req see
system.mem_ctrls.rdQLenPdf::16                      0                       # What read queue length does an incoming req see
system.mem_ctrls.rdQLenPdf::17                      0                       # What read queue length does an incoming req see
system.mem_ctrls.rdQLenPdf::18                      0                       # What read queue length does an incoming req see
system.mem_ctrls.rdQLenPdf::19                      0                       # What read queue length does an incoming req see
system.mem_ctrls.rdQLenPdf::20                      0                       # What read queue length does an incoming req see
system.mem_ctrls.rdQLenPdf::21                      0                       # What read queue length does an incoming req see
system.mem_ctrls.rdQLenPdf::22                      0                       # What read queue length does an incoming req see
system.mem_ctrls.rdQLenPdf::23                      0                       # What read queue length does an incoming req see
system.mem_ctrls.rdQLenPdf::24                      0                       # What read queue length does an incoming req see
system.mem_ctrls.rdQLenPdf::25                      0                       # What read queue length does an incoming req see
system.mem_ctrls.rdQLenPdf::26                      0                       # What read queue length does an incoming req see
system.mem_ctrls.rdQLenPdf::27                      0                       # What read queue length does an incoming req see
system.mem_ctrls.rdQLenPdf::28                      0                       # What read queue length does an incoming req see
system.mem_ctrls.rdQLenPdf::29                      0                       # What read queue length does an incoming req see
system.mem_ctrls.rdQLenPdf::30                      0                       # What read queue length does an incoming req see
system.mem_ctrls.rdQLenPdf::31                      0                       # What read queue length does an incoming req see
system.mem_ctrls.wrQLenPdf::0                       1                       # What write queue length does an incoming req see
system.mem_ctrls.wrQLenPdf::1                       1                       # What write queue length does an incoming req see
system.mem_ctrls.wrQLenPdf::2                       1                       # What write queue length does an incoming req see
system.mem_ctrls.wrQLenPdf::3                       1                       # What write queue length does an incoming req see
system.mem_ctrls.wrQLenPdf::4                       1                       # What write queue length does an incoming req see
system.mem_ctrls.wrQLenPdf::5                       1                       # What write queue length does an incoming req see
system.mem_ctrls.wrQLenPdf::6                       1                       # What write queue length does an incoming req see
system.mem_ctrls.wrQLenPdf::7                       1                       # What write queue length does an incoming req see
system.mem_ctrls.wrQLenPdf::8                       1                       # What write queue length does an incoming req see
system.mem_ctrls.wrQLenPdf::9                       1                       # What write queue length does an incoming req see
system.mem_ctrls.wrQLenPdf::10                      1                       # What write queue length does an incoming req see
system.mem_ctrls.wrQLenPdf::11                      1                       # What write queue length does an incoming req see
system.mem_ctrls.wrQLenPdf::12                      1                       # What write queue length does an incoming req see
system.mem_ctrls.wrQLenPdf::13                      1                       # What write queue length does an incoming req see
system.mem_ctrls.wrQLenPdf::14                      1                       # What write queue length does an incoming req see
system.mem_ctrls.wrQLenPdf::15                    706                       # What write queue length does an incoming req see
system.mem_ctrls.wrQLenPdf::16                    795                       # What write queue length does an incoming req see
system.mem_ctrls.wrQLenPdf::17                   6795                       # What write queue length does an incoming req see
system.mem_ctrls.wrQLenPdf::18                   7408                       # What write queue length does an incoming req see
system.mem_ctrls.wrQLenPdf::19                   7481                       # What write queue length does an incoming req see
system.mem_ctrls.wrQLenPdf::20                   7454                       # What write queue length does an incoming req see
system.mem_ctrls.wrQLenPdf::21                   7448                       # What write queue length does an incoming req see
system.mem_ctrls.wrQLenPdf::22                   7568                       # What write queue length does an incoming req see
system.mem_ctrls.wrQLenPdf::23                   7454                       # What write queue length does an incoming req see
system.mem_ctrls.wrQLenPdf::24                   7465                       # What write queue length does an incoming req see
system.mem_ctrls.wrQLenPdf::25                   7438                       # What write queue length does an incoming req see
system.mem_ctrls.wrQLenPdf::26                   7471                       # What write queue length does an incoming req see
system.mem_ctrls.wrQLenPdf::27                   7446                       # What write queue length does an incoming req see
system.mem_ctrls.wrQLenPdf::28                   7414                       # What write queue length does an incoming req see
system.mem_ctrls.wrQLenPdf::29                   7404                       # What write queue length does an incoming req see
system.mem_ctrls.wrQLenPdf::30                   7381                       # What write queue length does an incoming req see
system.mem_ctrls.wrQLenPdf::31                   7377                       # What write queue length does an incoming req see
system.mem_ctrls.wrQLenPdf::32                   7380                       # What write queue length does an incoming req see
system.mem_ctrls.wrQLenPdf::33                     13                       # What write queue length does an incoming req see
system.mem_ctrls.wrQLenPdf::34                      7                       # What write queue length does an incoming req see
system.mem_ctrls.wrQLenPdf::35                      5                       # What write queue length does an incoming req see
system.mem_ctrls.wrQLenPdf::36                      3                       # What write queue length does an incoming req see
system.mem_ctrls.wrQLenPdf::37                      1                       # What write queue length does an incoming req see
system.mem_ctrls.wrQLenPdf::38                      0                       # What write queue length does an incoming req see
system.mem_ctrls.wrQLenPdf::39                      0                       # What write queue length does an incoming req see
system.mem_ctrls.wrQLenPdf::40                      0                       # What write queue length does an incoming req see
system.mem_ctrls.wrQLenPdf::41                      0                       # What write queue length does an incoming req see
system.mem_ctrls.wrQLenPdf::42                      0                       # What write queue length does an incoming req see
system.mem_ctrls.wrQLenPdf::43                      0                       # What write queue length does an incoming req see
system.mem_ctrls.wrQLenPdf::44                      0                       # What write queue length does an incoming req see
system.mem_ctrls.wrQLenPdf::45                      0                       # What write queue length does an incoming req see
system.mem_ctrls.wrQLenPdf::46                      0                       # What write queue length does an incoming req see
system.mem_ctrls.wrQLenPdf::47                      0                       # What write queue length does an incoming req see
system.mem_ctrls.wrQLenPdf::48                      0                       # What write queue length does an incoming req see
system.mem_ctrls.wrQLenPdf::49                      0                       # What write queue length does an incoming req see
system.mem_ctrls.wrQLenPdf::50                      0                       # What write queue length does an incoming req see
system.mem_ctrls.wrQLenPdf::51                      0                       # What write queue length does an incoming req see
system.mem_ctrls.wrQLenPdf::52                      0                       # What write queue length does an incoming req see
system.mem_ctrls.wrQLenPdf::53                      0                       # What write queue length does an incoming req see
system.mem_ctrls.wrQLenPdf::54                      0                       # What write queue length does an incoming req see
system.mem_ctrls.wrQLenPdf::55                      0                       # What write queue length does an incoming req see
system.mem_ctrls.wrQLenPdf::56                      0                       # What write queue length does an incoming req see
system.mem_ctrls.wrQLenPdf::57                      0                       # What write queue length does an incoming req see
system.mem_ctrls.wrQLenPdf::58                      0                       # What write queue length does an incoming req see
system.mem_ctrls.wrQLenPdf::59                      0                       # What write queue length does an incoming req see
system.mem_ctrls.wrQLenPdf::60                      0                       # What write queue length does an incoming req see
system.mem_ctrls.wrQLenPdf::61                      0                       # What write queue length does an incoming req see
system.mem_ctrls.wrQLenPdf::62                      0                       # What write queue length does an incoming req see
system.mem_ctrls.wrQLenPdf::63                      0                       # What write queue length does an incoming req see
system.mem_ctrls.bytesPerActivate::samples        82108                       # Bytes accessed per row activation
system.mem_ctrls.bytesPerActivate::mean    208.220588                       # Bytes accessed per row activation
system.mem_ctrls.bytesPerActivate::gmean   139.932465                       # Bytes accessed per row activation
system.mem_ctrls.bytesPerActivate::stdev   224.875863                       # Bytes accessed per row activation
system.mem_ctrls.bytesPerActivate::0-127        34926     42.54%     42.54% # Bytes accessed per row activation
system.mem_ctrls.bytesPerActivate::128-255        24355     29.66%     72.20% # Bytes accessed per row activation
system.mem_ctrls.bytesPerActivate::256-383         9928     12.09%     84.29% # Bytes accessed per row activation
system.mem_ctrls.bytesPerActivate::384-511         4632      5.64%     89.93% # Bytes accessed per row activation
system.mem_ctrls.bytesPerActivate::512-639         2527      3.08%     93.01% # Bytes accessed per row activation
system.mem_ctrls.bytesPerActivate::640-767         1436      1.75%     94.76% # Bytes accessed per row activation
system.mem_ctrls.bytesPerActivate::768-895          921      1.12%     95.88% # Bytes accessed per row activation
system.mem_ctrls.bytesPerActivate::896-1023          595      0.72%     96.60% # Bytes accessed per row activation
system.mem_ctrls.bytesPerActivate::1024-1151         2788      3.40%    100.00% # Bytes accessed per row activation
system.mem_ctrls.bytesPerActivate::total        82108                       # Bytes accessed per row activation
system.mem_ctrls.rdPerTurnAround::samples         7373                       # Reads before turning the bus around for writes
system.mem_ctrls.rdPerTurnAround::mean      19.976129                       # Reads before turning the bus around for writes
system.mem_ctrls.rdPerTurnAround::gmean     18.360953                       # Reads before turning the bus around for writes
system.mem_ctrls.rdPerTurnAround::stdev     12.725533                       # Reads before turning the bus around for writes
system.mem_ctrls.rdPerTurnAround::0-15           1347     18.27%     18.27% # Reads before turning the bus around for writes
system.mem_ctrls.rdPerTurnAround::16-31          5540     75.14%     93.41% # Reads before turning the bus around for writes
system.mem_ctrls.rdPerTurnAround::32-47           291      3.95%     97.36% # Reads before turning the bus around for writes
system.mem_ctrls.rdPerTurnAround::48-63            91      1.23%     98.59% # Reads before turning the bus around for writes
system.mem_ctrls.rdPerTurnAround::64-79            45      0.61%     99.20% # Reads before turning the bus around for writes
system.mem_ctrls.rdPerTurnAround::80-95            21      0.28%     99.48% # Reads before turning the bus around for writes
system.mem_ctrls.rdPerTurnAround::96-111           11      0.15%     99.63% # Reads before turning the bus around for writes
system.mem_ctrls.rdPerTurnAround::112-127           10      0.14%     99.77% # Reads before turning the bus around for writes
system.mem_ctrls.rdPerTurnAround::128-143            9      0.12%     99.89% # Reads before turning the bus around for writes
system.mem_ctrls.rdPerTurnAround::144-159            4      0.05%     99.95% # Reads before turning the bus around for writes
system.mem_ctrls.rdPerTurnAround::176-191            1      0.01%     99.96% # Reads before turning the bus around for writes
system.mem_ctrls.rdPerTurnAround::208-223            1      0.01%     99.97% # Reads before turning the bus around for writes
system.mem_ctrls.rdPerTurnAround::256-271            1      0.01%     99.99% # Reads before turning the bus around for writes
system.mem_ctrls.rdPerTurnAround::400-415            1      0.01%    100.00% # Reads before turning the bus around for writes
system.mem_ctrls.rdPerTurnAround::total          7373                       # Reads before turning the bus around for writes
system.mem_ctrls.wrPerTurnAround::samples         7373                       # Writes before turning the bus around for reads
system.mem_ctrls.wrPerTurnAround::mean      16.262444                       # Writes before turning the bus around for reads
system.mem_ctrls.wrPerTurnAround::gmean     16.245107                       # Writes before turning the bus around for reads
system.mem_ctrls.wrPerTurnAround::stdev      0.786067                       # Writes before turning the bus around for reads
system.mem_ctrls.wrPerTurnAround::16             6547     88.80%     88.80% # Writes before turning the bus around for reads
system.mem_ctrls.wrPerTurnAround::17               79      1.07%     89.87% # Writes before turning the bus around for reads
system.mem_ctrls.wrPerTurnAround::18              465      6.31%     96.18% # Writes before turning the bus around for reads
system.mem_ctrls.wrPerTurnAround::19              212      2.88%     99.05% # Writes before turning the bus around for reads
system.mem_ctrls.wrPerTurnAround::20               62      0.84%     99.89% # Writes before turning the bus around for reads
system.mem_ctrls.wrPerTurnAround::21                7      0.09%     99.99% # Writes before turning the bus around for reads
system.mem_ctrls.wrPerTurnAround::23                1      0.01%    100.00% # Writes before turning the bus around for reads
system.mem_ctrls.wrPerTurnAround::total          7373                       # Writes before turning the bus around for reads
system.mem_ctrls.bytesReadDRAM                9426752                       # Total number of bytes read from DRAM
system.mem_ctrls.bytesReadWrQ                  680896                       # Total number of bytes read from write queue
system.mem_ctrls.bytesWritten                 7673792                       # Total number of bytes written to DRAM
system.mem_ctrls.bytesReadSys                10107648                       # Total read bytes from the system interface side
system.mem_ctrls.bytesWrittenSys              7817216                       # Total written bytes from the system interface side
system.mem_ctrls.avgRdBW                       786.90                       # Average DRAM read bandwidth in MiByte/s
system.mem_ctrls.avgWrBW                       640.57                       # Average achieved write bandwidth in MiByte/s
system.mem_ctrls.avgRdBWSys                    843.73                       # Average system read bandwidth in MiByte/s
system.mem_ctrls.avgWrBWSys                    652.54                       # Average system write bandwidth in MiByte/s
system.mem_ctrls.peakBW                      12800.00                       # Theoretical peak bandwidth in MiByte/s
system.mem_ctrls.busUtil                        11.15                       # Data bus utilization in percentage
system.mem_ctrls.busUtilRead                     6.15                       # Data bus utilization in percentage for reads
system.mem_ctrls.busUtilWrite                    5.00                       # Data bus utilization in percentage for writes
system.mem_ctrls.totGap                   11979667500                       # Total gap between requests
system.mem_ctrls.avgGap                      42772.92                       # Average gap between requests
system.mem_ctrls.masterReadBytes::.cpu.inst      4987712                       # Per-master bytes read from memory
system.mem_ctrls.masterReadBytes::.cpu.data      4439040                       # Per-master bytes read from memory
system.mem_ctrls.masterWriteBytes::.writebacks      7673792                       # Per-master bytes write to memory
system.mem_ctrls.masterReadRate::.cpu.inst 416347942.733826816082                       # Per-master bytes read from memory rate (Bytes/sec)
[...]
system.cpu.icache.tags.occ_percent::total            1                       # Average percentage of cache occupancy
system.cpu.icache.tags.occ_task_id_blocks::1024          512                       # Occupied blocks per task id
system.cpu.icache.tags.age_task_id_blocks_1024::0            3                       # Occupied blocks per task id
system.cpu.icache.tags.age_task_id_blocks_1024::1            3                       # Occupied blocks per task id
system.cpu.icache.tags.age_task_id_blocks_1024::2          137                       # Occupied blocks per task id
system.cpu.icache.tags.age_task_id_blocks_1024::3          301                       # Occupied blocks per task id
system.cpu.icache.tags.age_task_id_blocks_1024::4           68                       # Occupied blocks per task id
system.cpu.icache.tags.occ_task_id_percent::1024            1                       # Percentage of cache occupancy per task id
system.cpu.icache.tags.tag_accesses         270879797                       # Number of tag accesses
system.cpu.icache.tags.data_accesses        270879797                       # Number of data accesses
system.cpu.dcache.pwrStateResidencyTicks::UNDEFINED 524455600500                       # Cumulative time (in ticks) in various power states
system.cpu.dcache.demand_hits::.cpu.data    126432553                       # number of demand (read+write) hits
system.cpu.dcache.demand_hits::total        126432553                       # number of demand (read+write) hits
system.cpu.dcache.overall_hits::.cpu.data    126432553                       # number of overall hits
system.cpu.dcache.overall_hits::total       126432553                       # number of overall hits
system.cpu.dcache.demand_misses::.cpu.data      4388740                       # number of demand (read+write) misses
system.cpu.dcache.demand_misses::total        4388740                       # number of demand (read+write) misses
system.cpu.dcache.overall_misses::.cpu.data      4388740                       # number of overall misses
system.cpu.dcache.overall_misses::total       4388740                       # number of overall misses
system.cpu.dcache.demand_miss_latency::.cpu.data 264745126500                       # number of demand (read+write) miss cycles
system.cpu.dcache.demand_miss_latency::total 264745126500                       # number of demand (read+write) miss cycles
system.cpu.dcache.overall_miss_latency::.cpu.data 264745126500                       # number of overall miss cycles
system.cpu.dcache.overall_miss_latency::total 264745126500                       # number of overall miss cycles
system.cpu.dcache.demand_accesses::.cpu.data    130821293                       # number of demand (read+write) accesses
system.cpu.dcache.demand_accesses::total    130821293                       # number of demand (read+write) accesses
system.cpu.dcache.overall_accesses::.cpu.data    130821293                       # number of overall (read+write) accesses
system.cpu.dcache.overall_accesses::total    130821293                       # number of overall (read+write) accesses
system.cpu.dcache.demand_miss_rate::.cpu.data     0.033548                       # miss rate for demand accesses
system.cpu.dcache.demand_miss_rate::total     0.033548                       # miss rate for demand accesses
system.cpu.dcache.overall_miss_rate::.cpu.data     0.033548                       # miss rate for overall accesses
system.cpu.dcache.overall_miss_rate::total     0.033548                       # miss rate for overall accesses
system.cpu.dcache.demand_avg_miss_latency::.cpu.data 60323.720817                       # average overall miss latency
system.cpu.dcache.demand_avg_miss_latency::total 60323.720817                       # average overall miss latency
system.cpu.dcache.overall_avg_miss_latency::.cpu.data 60323.720817                       # average overall miss latency
system.cpu.dcache.overall_avg_miss_latency::total 60323.720817                       # average overall miss latency
system.cpu.dcache.blocked_cycles::no_mshrs            0                       # number of cycles access was blocked
system.cpu.dcache.blocked_cycles::no_targets            0                       # number of cycles access was blocked
system.cpu.dcache.blocked::no_mshrs                 0                       # number of cycles access was blocked
system.cpu.dcache.blocked::no_targets               0                       # number of cycles access was blocked
system.cpu.dcache.avg_blocked_cycles::no_mshrs          nan                       # average number of cycles each access was blocked
system.cpu.dcache.avg_blocked_cycles::no_targets          nan                       # average number of cycles each access was blocked
system.cpu.dcache.writebacks::.writebacks      1891914                       # number of writebacks
system.cpu.dcache.writebacks::total           1891914                       # number of writebacks
system.cpu.dcache.demand_mshr_hits::.cpu.data      1222560                       # number of demand (read+write) MSHR hits
system.cpu.dcache.demand_mshr_hits::total      1222560                       # number of demand (read+write) MSHR hits
system.cpu.dcache.overall_mshr_hits::.cpu.data      1222560                       # number of overall MSHR hits
system.cpu.dcache.overall_mshr_hits::total      1222560                       # number of overall MSHR hits
system.cpu.dcache.demand_mshr_misses::.cpu.data      3166180                       # number of demand (read+write) MSHR misses
system.cpu.dcache.demand_mshr_misses::total      3166180                       # number of demand (read+write) MSHR misses
system.cpu.dcache.overall_mshr_misses::.cpu.data      3166180                       # number of overall MSHR misses
system.cpu.dcache.overall_mshr_misses::total      3166180                       # number of overall MSHR misses
system.cpu.dcache.overall_mshr_uncacheable_misses::.cpu.data         1177                       # number of overall MSHR uncacheable misses
system.cpu.dcache.overall_mshr_uncacheable_misses::total         1177                       # number of overall MSHR uncacheable misses
system.cpu.dcache.demand_mshr_miss_latency::.cpu.data 185159930500                       # number of demand (read+write) MSHR miss cycles
system.cpu.dcache.demand_mshr_miss_latency::total 185159930500                       # number of demand (read+write) MSHR miss cycles
system.cpu.dcache.overall_mshr_miss_latency::.cpu.data 185159930500                       # number of overall MSHR miss cycles
system.cpu.dcache.overall_mshr_miss_latency::total 185159930500                       # number of overall MSHR miss cycles
system.cpu.dcache.overall_mshr_uncacheable_latency::.cpu.data     47867000                       # number of overall MSHR uncacheable cycles
system.cpu.dcache.overall_mshr_uncacheable_latency::total     47867000                       # number of overall MSHR uncacheable cycles
system.cpu.dcache.demand_mshr_miss_rate::.cpu.data     0.024202                       # mshr miss rate for demand accesses
system.cpu.dcache.demand_mshr_miss_rate::total     0.024202                       # mshr miss rate for demand accesses
system.cpu.dcache.overall_mshr_miss_rate::.cpu.data     0.024202                       # mshr miss rate for overall accesses
system.cpu.dcache.overall_mshr_miss_rate::total     0.024202                       # mshr miss rate for overall accesses
system.cpu.dcache.demand_avg_mshr_miss_latency::.cpu.data 58480.544536                       # average overall mshr miss latency
system.cpu.dcache.demand_avg_mshr_miss_latency::total 58480.544536                       # average overall mshr miss latency
system.cpu.dcache.overall_avg_mshr_miss_latency::.cpu.data 58480.544536                       # average overall mshr miss latency
system.cpu.dcache.overall_avg_mshr_miss_latency::total 58480.544536                       # average overall mshr miss latency
system.cpu.dcache.overall_avg_mshr_uncacheable_latency::.cpu.data 40668.649108                       # average overall mshr uncacheable latency
system.cpu.dcache.overall_avg_mshr_uncacheable_latency::total 40668.649108                       # average overall mshr uncacheable latency
system.cpu.dcache.replacements                3169561                       # number of replacements
system.cpu.dcache.ReadReq_hits::.cpu.data     87335956                       # number of ReadReq hits
system.cpu.dcache.ReadReq_hits::total        87335956                       # number of ReadReq hits
system.cpu.dcache.ReadReq_misses::.cpu.data      1918997                       # number of ReadReq misses
system.cpu.dcache.ReadReq_misses::total       1918997                       # number of ReadReq misses
system.cpu.dcache.ReadReq_miss_latency::.cpu.data 111381929000                       # number of ReadReq miss cycles
system.cpu.dcache.ReadReq_miss_latency::total 111381929000                       # number of ReadReq miss cycles
system.cpu.dcache.ReadReq_accesses::.cpu.data     89254953                       # number of ReadReq accesses(hits+misses)
system.cpu.dcache.ReadReq_accesses::total     89254953                       # number of ReadReq accesses(hits+misses)
system.cpu.dcache.ReadReq_miss_rate::.cpu.data     0.021500                       # miss rate for ReadReq accesses
system.cpu.dcache.ReadReq_miss_rate::total     0.021500                       # miss rate for ReadReq accesses
system.cpu.dcache.ReadReq_avg_miss_latency::.cpu.data 58041.742118                       # average ReadReq miss latency
system.cpu.dcache.ReadReq_avg_miss_latency::total 58041.742118                       # average ReadReq miss latency
system.cpu.dcache.ReadReq_mshr_hits::.cpu.data       106713                       # number of ReadReq MSHR hits
system.cpu.dcache.ReadReq_mshr_hits::total       106713                       # number of ReadReq MSHR hits
system.cpu.dcache.ReadReq_mshr_misses::.cpu.data      1812284                       # number of ReadReq MSHR misses
system.cpu.dcache.ReadReq_mshr_misses::total      1812284                       # number of ReadReq MSHR misses
system.cpu.dcache.ReadReq_mshr_uncacheable::.cpu.data          272                       # number of ReadReq MSHR uncacheable
system.cpu.dcache.ReadReq_mshr_uncacheable::total          272                       # number of ReadReq MSHR uncacheable
system.cpu.dcache.ReadReq_mshr_miss_latency::.cpu.data 103356704500                       # number of ReadReq MSHR miss cycles
system.cpu.dcache.ReadReq_mshr_miss_latency::total 103356704500                       # number of ReadReq MSHR miss cycles
system.cpu.dcache.ReadReq_mshr_uncacheable_latency::.cpu.data     47867000                       # number of ReadReq MSHR uncacheable cycles
system.cpu.dcache.ReadReq_mshr_uncacheable_latency::total     47867000                       # number of ReadReq MSHR uncacheable cycles
system.cpu.dcache.ReadReq_mshr_miss_rate::.cpu.data     0.020305                       # mshr miss rate for ReadReq accesses
system.cpu.dcache.ReadReq_mshr_miss_rate::total     0.020305                       # mshr miss rate for ReadReq accesses
system.cpu.dcache.ReadReq_avg_mshr_miss_latency::.cpu.data 57031.185234                       # average ReadReq mshr miss latency
system.cpu.dcache.ReadReq_avg_mshr_miss_latency::total 57031.185234                       # average ReadReq mshr miss latency
system.cpu.dcache.ReadReq_avg_mshr_uncacheable_latency::.cpu.data 175981.617647                       # average ReadReq mshr uncacheable latency
system.cpu.dcache.ReadReq_avg_mshr_uncacheable_latency::total 175981.617647                       # average ReadReq mshr uncacheable latency
system.cpu.dcache.WriteReq_hits::.cpu.data     39096597                       # number of WriteReq hits
system.cpu.dcache.WriteReq_hits::total       39096597                       # number of WriteReq hits
system.cpu.dcache.WriteReq_misses::.cpu.data      2469743                       # number of WriteReq misses
system.cpu.dcache.WriteReq_misses::total      2469743                       # number of WriteReq misses
system.cpu.dcache.WriteReq_miss_latency::.cpu.data 153363197500                       # number of WriteReq miss cycles
system.cpu.dcache.WriteReq_miss_latency::total 153363197500                       # number of WriteReq miss cycles
system.cpu.dcache.WriteReq_accesses::.cpu.data     41566340                       # number of WriteReq accesses(hits+misses)
system.cpu.dcache.WriteReq_accesses::total     41566340                       # number of WriteReq accesses(hits+misses)
system.cpu.dcache.WriteReq_miss_rate::.cpu.data     0.059417                       # miss rate for WriteReq accesses
system.cpu.dcache.WriteReq_miss_rate::total     0.059417                       # miss rate for WriteReq accesses
system.cpu.dcache.WriteReq_avg_miss_latency::.cpu.data 62096.824447                       # average WriteReq miss latency
system.cpu.dcache.WriteReq_avg_miss_latency::total 62096.824447                       # average WriteReq miss latency
system.cpu.dcache.WriteReq_mshr_hits::.cpu.data      1115847                       # number of WriteReq MSHR hits
system.cpu.dcache.WriteReq_mshr_hits::total      1115847                       # number of WriteReq MSHR hits
system.cpu.dcache.WriteReq_mshr_misses::.cpu.data      1353896                       # number of WriteReq MSHR misses
system.cpu.dcache.WriteReq_mshr_misses::total      1353896                       # number of WriteReq MSHR misses
system.cpu.dcache.WriteReq_mshr_uncacheable::.cpu.data          905                       # number of WriteReq MSHR uncacheable
system.cpu.dcache.WriteReq_mshr_uncacheable::total          905                       # number of WriteReq MSHR uncacheable
system.cpu.dcache.WriteReq_mshr_miss_latency::.cpu.data  81803226000                       # number of WriteReq MSHR miss cycles
system.cpu.dcache.WriteReq_mshr_miss_latency::total  81803226000                       # number of WriteReq MSHR miss cycles
system.cpu.dcache.WriteReq_mshr_miss_rate::.cpu.data     0.032572                       # mshr miss rate for WriteReq accesses
system.cpu.dcache.WriteReq_mshr_miss_rate::total     0.032572                       # mshr miss rate for WriteReq accesses
system.cpu.dcache.WriteReq_avg_mshr_miss_latency::.cpu.data 60420.612809                       # average WriteReq mshr miss latency
system.cpu.dcache.WriteReq_avg_mshr_miss_latency::total 60420.612809                       # average WriteReq mshr miss latency
system.cpu.dcache.LoadLockedReq_hits::.cpu.data        76981                       # number of LoadLockedReq hits
system.cpu.dcache.LoadLockedReq_hits::total        76981                       # number of LoadLockedReq hits
system.cpu.dcache.LoadLockedReq_misses::.cpu.data         3382                       # number of LoadLockedReq misses
system.cpu.dcache.LoadLockedReq_misses::total         3382                       # number of LoadLockedReq misses
system.cpu.dcache.LoadLockedReq_miss_latency::.cpu.data    256487000                       # number of LoadLockedReq miss cycles
system.cpu.dcache.LoadLockedReq_miss_latency::total    256487000                       # number of LoadLockedReq miss cycles
system.cpu.dcache.LoadLockedReq_accesses::.cpu.data        80363                       # number of LoadLockedReq accesses(hits+misses)
system.cpu.dcache.LoadLockedReq_accesses::total        80363                       # number of LoadLockedReq accesses(hits+misses)
system.cpu.dcache.LoadLockedReq_miss_rate::.cpu.data     0.042084                       # miss rate for LoadLockedReq accesses
system.cpu.dcache.LoadLockedReq_miss_rate::total     0.042084                       # miss rate for LoadLockedReq accesses
system.cpu.dcache.LoadLockedReq_avg_miss_latency::.cpu.data 75838.852750                       # average LoadLockedReq miss latency
system.cpu.dcache.LoadLockedReq_avg_miss_latency::total 75838.852750                       # average LoadLockedReq miss latency
system.cpu.dcache.LoadLockedReq_mshr_hits::.cpu.data            1                       # number of LoadLockedReq MSHR hits
system.cpu.dcache.LoadLockedReq_mshr_hits::total            1                       # number of LoadLockedReq MSHR hits
system.cpu.dcache.LoadLockedReq_mshr_misses::.cpu.data         3381                       # number of LoadLockedReq MSHR misses
system.cpu.dcache.LoadLockedReq_mshr_misses::total         3381                       # number of LoadLockedReq MSHR misses
system.cpu.dcache.LoadLockedReq_mshr_miss_latency::.cpu.data    253049000                       # number of LoadLockedReq MSHR miss cycles
system.cpu.dcache.LoadLockedReq_mshr_miss_latency::total    253049000                       # number of LoadLockedReq MSHR miss cycles
system.cpu.dcache.LoadLockedReq_mshr_miss_rate::.cpu.data     0.042072                       # mshr miss rate for LoadLockedReq accesses
system.cpu.dcache.LoadLockedReq_mshr_miss_rate::total     0.042072                       # mshr miss rate for LoadLockedReq accesses
system.cpu.dcache.LoadLockedReq_avg_mshr_miss_latency::.cpu.data 74844.424726                       # average LoadLockedReq mshr miss latency
system.cpu.dcache.LoadLockedReq_avg_mshr_miss_latency::total 74844.424726                       # average LoadLockedReq mshr miss latency
system.cpu.dcache.StoreCondReq_hits::.cpu.data        80248                       # number of StoreCondReq hits
system.cpu.dcache.StoreCondReq_hits::total        80248                       # number of StoreCondReq hits
system.cpu.dcache.StoreCondReq_accesses::.cpu.data        80248                       # number of StoreCondReq accesses(hits+misses)
system.cpu.dcache.StoreCondReq_accesses::total        80248                       # number of StoreCondReq accesses(hits+misses)
system.cpu.dcache.tags.pwrStateResidencyTicks::UNDEFINED 524455600500                       # Cumulative time (in ticks) in various power states
system.cpu.dcache.tags.tagsinuse                 1024                       # Cycle average of tags in use
system.cpu.dcache.tags.total_refs           130020101                       # Total number of references to valid blocks.
system.cpu.dcache.tags.sampled_refs           3170585                       # Sample count of references to valid blocks.
system.cpu.dcache.tags.avg_refs             41.008237                       # Average number of references to valid blocks.
system.cpu.dcache.tags.warmup_cycle                 0                       # Cycle when the warmup percentage was hit.
system.cpu.dcache.tags.occ_blocks::.cpu.data         1024                       # Average occupied blocks per requestor
system.cpu.dcache.tags.occ_percent::.cpu.data            1                       # Average percentage of cache occupancy
system.cpu.dcache.tags.occ_percent::total            1                       # Average percentage of cache occupancy
system.cpu.dcache.tags.occ_task_id_blocks::1024         1024                       # Occupied blocks per task id
system.cpu.dcache.tags.age_task_id_blocks_1024::0           47                       # Occupied blocks per task id
system.cpu.dcache.tags.age_task_id_blocks_1024::1          659                       # Occupied blocks per task id
system.cpu.dcache.tags.age_task_id_blocks_1024::2           92                       # Occupied blocks per task id
system.cpu.dcache.tags.age_task_id_blocks_1024::3          226                       # Occupied blocks per task id
system.cpu.dcache.tags.occ_task_id_percent::1024            1                       # Percentage of cache occupancy per task id
system.cpu.dcache.tags.tag_accesses         265133369                       # Number of tag accesses
system.cpu.dcache.tags.data_accesses        265133369                       # Number of data accesses

---------- End Simulation Statistics   ----------
