
---------- Begin Simulation Statistics ----------
final_tick                               2542176967500                       # Number of ticks from beginning of simulation (restored from checkpoints and never reset)
host_inst_rate                                 226976                       # Simulator instruction rate (inst/s)
host_mem_usage                                 740736                       # Number of bytes of host memory used
host_op_rate                                   226974                       # Simulator op (including micro ops) rate (op/s)
host_seconds                                    18.49                       # Real time elapsed on the host
host_tick_rate                              658034558                       # Simulator tick rate (ticks/s)
sim_freq                                 1000000000000                       # Frequency of simulated ticks
sim_insts                                     4196770                       # Number of instructions simulated
sim_ops                                       4196770                       # Number of ops (including micro ops) simulated
sim_seconds                                  0.012167                       # Number of seconds simulated
sim_ticks                                 12167122500                       # Number of ticks simulated
system.cpu.branchPred.BTBCorrect                    0                       # Number of correct BTB predictions (this stat may not work properly.
system.cpu.branchPred.BTBHitPct             46.614957                       # BTB Hit Percentage
system.cpu.branchPred.BTBHits                  374354                       # Number of BTB hits
system.cpu.branchPred.BTBLookups               803077                       # Number of BTB lookups
system.cpu.branchPred.RASInCorrect               2738                       # Number of incorrect RAS predictions.
system.cpu.branchPred.condIncorrect            115974                       # Number of conditional branches incorrect
system.cpu.branchPred.condPredicted            867731                       # Number of conditional branches predicted
system.cpu.branchPred.indirectHits              45129                       # Number of indirect target hits.
system.cpu.branchPred.indirectLookups          284600                       # Number of indirect predictor lookups.
system.cpu.branchPred.indirectMisses           239471                       # Number of indirect misses.
system.cpu.branchPred.lookups                 1074599                       # Number of BP lookups
system.cpu.branchPred.usedRAS                   71732                       # Number of times the RAS was used to get a target.
system.cpu.branchPredindirectMispredicted        31851                       # Number of mispredicted indirect branches.
system.cpu.committedInsts                     4196770                       # Number of instructions committed
system.cpu.committedOps                       4196770                       # Number of ops (including micro ops) committed
system.cpu.cpi                               5.795080                       # CPI: cycles per instruction
system.cpu.discardedOps                        297500                       # Number of ops (including micro ops) which were discarded before commit
system.cpu.dtb.data_accesses                   619762                       # DTB accesses
system.cpu.dtb.data_acv                           131                       # DTB access violations
system.cpu.dtb.data_hits                      1478044                       # DTB hits
system.cpu.dtb.data_misses                       8694                       # DTB misses
system.cpu.dtb.fetch_accesses                       0                       # ITB accesses
system.cpu.dtb.fetch_acv                            0                       # ITB acv
system.cpu.dtb.fetch_hits                           0                       # ITB hits
system.cpu.dtb.fetch_misses                         0                       # ITB misses
system.cpu.dtb.read_accesses                   417779                       # DTB read accesses
system.cpu.dtb.read_acv                            43                       # DTB read access violations
system.cpu.dtb.read_hits                       873867                       # DTB read hits
system.cpu.dtb.read_misses                       7756                       # DTB read misses
system.cpu.dtb.write_accesses                  201983                       # DTB write accesses
system.cpu.dtb.write_acv                           88                       # DTB write access violations
system.cpu.dtb.write_hits                      604177                       # DTB write hits
system.cpu.dtb.write_misses                       938                       # DTB write misses
system.cpu.fetch2.amo_instructions                  0                       # Number of memory atomic instructions successfully decoded
system.cpu.fetch2.fp_instructions               18150                       # Number of floating point instructions successfully decoded
system.cpu.fetch2.int_instructions            3671551                       # Number of integer instructions successfully decoded
system.cpu.fetch2.load_instructions           1161210                       # Number of memory load instructions successfully decoded
system.cpu.fetch2.store_instructions           687563                       # Number of memory store instructions successfully decoded
system.cpu.fetch2.vec_instructions                  0                       # Number of SIMD instructions successfully decoded
system.cpu.idleCycles                        17087787                       # Total number of cycles that the object has spent stopped
system.cpu.ipc                               0.172560                       # IPC: instructions per cycle
system.cpu.itb.data_accesses                        0                       # DTB accesses
system.cpu.itb.data_acv                             0                       # DTB access violations
system.cpu.itb.data_hits                            0                       # DTB hits
system.cpu.itb.data_misses                          0                       # DTB misses
system.cpu.itb.fetch_accesses                 1004990                       # ITB accesses
system.cpu.itb.fetch_acv                          803                       # ITB acv
system.cpu.itb.fetch_hits                      997476                       # ITB hits
system.cpu.itb.fetch_misses                      7514                       # ITB misses
system.cpu.itb.read_accesses                        0                       # DTB read accesses
system.cpu.itb.read_acv                             0                       # DTB read access violations
system.cpu.itb.read_hits                            0                       # DTB read hits
system.cpu.itb.read_misses                          0                       # DTB read misses
system.cpu.itb.write_accesses                       0                       # DTB write accesses
system.cpu.itb.write_acv                            0                       # DTB write access violations
system.cpu.itb.write_hits                           0                       # DTB write hits
system.cpu.itb.write_misses                         0                       # DTB write misses
system.cpu.kern.callpal::swpctx                   574      9.41%      9.41% # number of callpals executed
system.cpu.kern.callpal::tbi                       25      0.41%      9.82% # number of callpals executed
system.cpu.kern.callpal::swpipl                  4236     69.42%     79.24% # number of callpals executed
system.cpu.kern.callpal::rdps                      50      0.82%     80.06% # number of callpals executed
system.cpu.kern.callpal::wrusp                      4      0.07%     80.12% # number of callpals executed
system.cpu.kern.callpal::rdusp                      3      0.05%     80.17% # number of callpals executed
system.cpu.kern.callpal::rti                      897     14.70%     94.87% # number of callpals executed
system.cpu.kern.callpal::callsys                  235      3.85%     98.72% # number of callpals executed
system.cpu.kern.callpal::imb                       78      1.28%    100.00% # number of callpals executed
system.cpu.kern.callpal::total                   6102                       # number of callpals executed
system.cpu.kern.inst.arm                            0                       # number of arm instructions executed
system.cpu.kern.inst.hwrei                      14446                       # number of hwrei instructions executed
system.cpu.kern.inst.quiesce                        9                       # number of quiesce instructions executed
system.cpu.kern.ipl_count::0                     2438     47.33%     47.33% # number of times we switched to this ipl
system.cpu.kern.ipl_count::21                       5      0.10%     47.43% # number of times we switched to this ipl
system.cpu.kern.ipl_count::22                      13      0.25%     47.68% # number of times we switched to this ipl
system.cpu.kern.ipl_count::31                    2695     52.32%    100.00% # number of times we switched to this ipl
system.cpu.kern.ipl_count::total                 5151                       # number of times we switched to this ipl
system.cpu.kern.ipl_good::0                      2425     49.82%     49.82% # number of times we switched to this ipl from a different ipl
system.cpu.kern.ipl_good::21                        5      0.10%     49.92% # number of times we switched to this ipl from a different ipl
system.cpu.kern.ipl_good::22                       13      0.27%     50.18% # number of times we switched to this ipl from a different ipl
system.cpu.kern.ipl_good::31                     2425     49.82%    100.00% # number of times we switched to this ipl from a different ipl
system.cpu.kern.ipl_good::total                  4868                       # number of times we switched to this ipl from a different ipl
system.cpu.kern.ipl_ticks::0              11227591500     92.25%     92.25% # number of cycles we spent at this ipl
system.cpu.kern.ipl_ticks::21                 9309500      0.08%     92.32% # number of cycles we spent at this ipl
system.cpu.kern.ipl_ticks::22                19290500      0.16%     92.48% # number of cycles we spent at this ipl
system.cpu.kern.ipl_ticks::31               915271500      7.52%    100.00% # number of cycles we spent at this ipl
system.cpu.kern.ipl_ticks::total          12171463000                       # number of cycles we spent at this ipl
system.cpu.kern.ipl_used::0                  0.994668                       # fraction of swpipl calls that actually changed the ipl
system.cpu.kern.ipl_used::21                        1                       # fraction of swpipl calls that actually changed the ipl
system.cpu.kern.ipl_used::22                        1                       # fraction of swpipl calls that actually changed the ipl
system.cpu.kern.ipl_used::31                 0.899814                       # fraction of swpipl calls that actually changed the ipl
system.cpu.kern.ipl_used::total              0.945059                       # fraction of swpipl calls that actually changed the ipl
system.cpu.kern.mode_good::kernel                 870                      
system.cpu.kern.mode_good::user                   870                      
system.cpu.kern.mode_good::idle                     0                      
system.cpu.kern.mode_switch::kernel              1471                       # number of protection mode switches
system.cpu.kern.mode_switch::user                 870                       # number of protection mode switches
system.cpu.kern.mode_switch::idle                   0                       # number of protection mode switches
system.cpu.kern.mode_switch_good::kernel     0.591434                       # fraction of useful protection mode switches
system.cpu.kern.mode_switch_good::user              1                       # fraction of useful protection mode switches
system.cpu.kern.mode_switch_good::idle            nan                       # fraction of useful protection mode switches
system.cpu.kern.mode_switch_good::total      0.743272                       # fraction of useful protection mode switches
system.cpu.kern.mode_ticks::kernel         8167972500     67.11%     67.11% # number of ticks spent at the given mode
system.cpu.kern.mode_ticks::user           4003490500     32.89%    100.00% # number of ticks spent at the given mode
system.cpu.kern.mode_ticks::idle                    0      0.00%    100.00% # number of ticks spent at the given mode
system.cpu.kern.swap_context                      574                       # number of times the context was actually changed
system.cpu.numCycles                         24320619                       # number of cpu cycles simulated
system.cpu.numFetchSuspends                         9                       # Number of times Execute suspended instruction fetching
system.cpu.numWorkItemsCompleted                    0                       # number of work items this cpu completed
system.cpu.numWorkItemsStarted                      0                       # number of work items this cpu started
system.cpu.op_class_0::No_OpClass               85405      2.04%      2.04% # Class of committed instruction
system.cpu.op_class_0::IntAlu                 2541935     60.57%     62.60% # Class of committed instruction
system.cpu.op_class_0::IntMult                   3684      0.09%     62.69% # Class of committed instruction
system.cpu.op_class_0::IntDiv                       0      0.00%     62.69% # Class of committed instruction
system.cpu.op_class_0::FloatAdd                  8286      0.20%     62.89% # Class of committed instruction
system.cpu.op_class_0::FloatCmp                     0      0.00%     62.89% # Class of committed instruction
system.cpu.op_class_0::FloatCvt                     0      0.00%     62.89% # Class of committed instruction
system.cpu.op_class_0::FloatMult                    0      0.00%     62.89% # Class of committed instruction
system.cpu.op_class_0::FloatMultAcc                 0      0.00%     62.89% # Class of committed instruction
system.cpu.op_class_0::FloatDiv                  1593      0.04%     62.93% # Class of committed instruction
system.cpu.op_class_0::FloatMisc                    0      0.00%     62.93% # Class of committed instruction
system.cpu.op_class_0::FloatSqrt                    0      0.00%     62.93% # Class of committed instruction
system.cpu.op_class_0::SimdAdd                      0      0.00%     62.93% # Class of committed instruction
system.cpu.op_class_0::SimdAddAcc                   0      0.00%     62.93% # Class of committed instruction
system.cpu.op_class_0::SimdAlu                      0      0.00%     62.93% # Class of committed instruction
system.cpu.op_class_0::SimdCmp                      0      0.00%     62.93% # Class of committed instruction
system.cpu.op_class_0::SimdCvt                      0      0.00%     62.93% # Class of committed instruction
system.cpu.op_class_0::SimdMisc                     0      0.00%     62.93% # Class of committed instruction
system.cpu.op_class_0::SimdMult                     0      0.00%     62.93% # Class of committed instruction
system.cpu.op_class_0::SimdMultAcc                  0      0.00%     62.93% # Class of committed instruction
system.cpu.op_class_0::SimdShift                    0      0.00%     62.93% # Class of committed instruction
system.cpu.op_class_0::SimdShiftAcc                 0      0.00%     62.93% # Class of committed instruction
system.cpu.op_class_0::SimdDiv                      0      0.00%     62.93% # Class of committed instruction
system.cpu.op_class_0::SimdSqrt                     0      0.00%     62.93% # Class of committed instruction
system.cpu.op_class_0::SimdFloatAdd                 0      0.00%     62.93% # Class of committed instruction
system.cpu.op_class_0::SimdFloatAlu                 0      0.00%     62.93% # Class of committed instruction
system.cpu.op_class_0::SimdFloatCmp                 0      0.00%     62.93% # Class of committed instruction
system.cpu.op_class_0::SimdFloatCvt                 0      0.00%     62.93% # Class of committed instruction
system.cpu.op_class_0::SimdFloatDiv                 0      0.00%     62.93% # Class of committed instruction
system.cpu.op_class_0::SimdFloatMisc                0      0.00%     62.93% # Class of committed instruction
system.cpu.op_class_0::SimdFloatMult                0      0.00%     62.93% # Class of committed instruction
system.cpu.op_class_0::SimdFloatMultAcc             0      0.00%     62.93% # Class of committed instruction
system.cpu.op_class_0::SimdFloatSqrt                0      0.00%     62.93% # Class of committed instruction
system.cpu.op_class_0::SimdReduceAdd                0      0.00%     62.93% # Class of committed instruction
system.cpu.op_class_0::SimdReduceAlu                0      0.00%     62.93% # Class of committed instruction
system.cpu.op_class_0::SimdReduceCmp                0      0.00%     62.93% # Class of committed instruction
system.cpu.op_class_0::SimdFloatReduceAdd            0      0.00%     62.93% # Class of committed instruction
system.cpu.op_class_0::SimdFloatReduceCmp            0      0.00%     62.93% # Class of committed instruction
system.cpu.op_class_0::SimdAes                      0      0.00%     62.93% # Class of committed instruction
system.cpu.op_class_0::SimdAesMix                   0      0.00%     62.93% # Class of committed instruction
system.cpu.op_class_0::SimdSha1Hash                 0      0.00%     62.93% # Class of committed instruction
system.cpu.op_class_0::SimdSha1Hash2                0      0.00%     62.93% # Class of committed instruction
system.cpu.op_class_0::SimdSha256Hash               0      0.00%     62.93% # Class of committed instruction
system.cpu.op_class_0::SimdSha256Hash2              0      0.00%     62.93% # Class of committed instruction
system.cpu.op_class_0::SimdShaSigma2                0      0.00%     62.93% # Class of committed instruction
system.cpu.op_class_0::SimdShaSigma3                0      0.00%     62.93% # Class of committed instruction
system.cpu.op_class_0::SimdPredAlu                  0      0.00%     62.93% # Class of committed instruction
system.cpu.op_class_0::MemRead                 839498     20.00%     82.93% # Class of committed instruction
system.cpu.op_class_0::MemWrite                592657     14.12%     97.05% # Class of committed instruction
system.cpu.op_class_0::FloatMemRead              9988      0.24%     97.29% # Class of committed instruction
system.cpu.op_class_0::FloatMemWrite             8788      0.21%     97.50% # Class of committed instruction
system.cpu.op_class_0::IprAccess               104936      2.50%    100.00% # Class of committed instruction
system.cpu.op_class_0::InstPrefetch                 0      0.00%    100.00% # Class of committed instruction
system.cpu.op_class_0::total                  4196770                       # Class of committed instruction
system.cpu.quiesceCycles                        13626                       # Total number of cycles that CPU has spent quiesced or waiting for an interrupt
system.cpu.tickCycles                         7232832                       # Number of cycles that the object actually ticked
system.disk0.dma_read_bytes                         0                       # Number of bytes transfered via DMA reads (not PRD).
system.disk0.dma_read_full_pages                    0                       # Number of full page size DMA reads (not PRD).
system.disk0.dma_read_txs                           0                       # Number of DMA read transactions (not PRD).
system.disk0.dma_write_bytes                    12288                       # Number of bytes transfered via DMA writes.
system.disk0.dma_write_full_pages                   0                       # Number of full page size DMA writes.
system.disk0.dma_write_txs                          3                       # Number of DMA write transactions.
system.disk2.dma_read_bytes                         0                       # Number of bytes transfered via DMA reads (not PRD).
system.disk2.dma_read_full_pages                    0                       # Number of full page size DMA reads (not PRD).
system.disk2.dma_read_txs                           0                       # Number of DMA read transactions (not PRD).
system.disk2.dma_write_bytes                        0                       # Number of bytes transfered via DMA writes.
system.disk2.dma_write_full_pages                   0                       # Number of full page size DMA writes.
system.disk2.dma_write_txs                          0                       # Number of DMA write transactions.
system.membus.snoop_filter.hit_multi_requests          435                       # Number of requests hitting in the snoop filter with multiple (>1) holders of the requested data.
system.membus.snoop_filter.hit_multi_snoops            0                       # Number of snoops hitting in the snoop filter with multiple (>1) holders of the requested data.
system.membus.snoop_filter.hit_single_requests       158392                       # Number of requests hitting in the snoop filter with a single holder of the requested data.
system.membus.snoop_filter.hit_single_snoops            0                       # Number of snoops hitting in the snoop filter with a single holder of the requested data.
system.membus.snoop_filter.tot_requests        318392                       # Total number of requests made to the snoop filter.
system.membus.snoop_filter.tot_snoops               0                       # Total number of snoops made to the snoop filter.
system.tsunami.ethernet.coalescedRxDesc           nan                       # average number of RxDesc's coalesced into each post
system.tsunami.ethernet.coalescedRxIdle           nan                       # average number of RxIdle's coalesced into each post
system.tsunami.ethernet.coalescedRxOk             nan                       # average number of RxOk's coalesced into each post
system.tsunami.ethernet.coalescedRxOrn            nan                       # average number of RxOrn's coalesced into each post
system.tsunami.ethernet.coalescedSwi              nan                       # average number of Swi's coalesced into each post
system.tsunami.ethernet.coalescedTotal            nan                       # average number of interrupts coalesced into each post
system.tsunami.ethernet.coalescedTxDesc           nan                       # average number of TxDesc's coalesced into each post
system.tsunami.ethernet.coalescedTxIdle           nan                       # average number of TxIdle's coalesced into each post
system.tsunami.ethernet.coalescedTxOk             nan                       # average number of TxOk's coalesced into each post
system.tsunami.ethernet.descDMAReads                0                       # Number of descriptors the device read w/ DMA
system.tsunami.ethernet.descDMAWrites               0                       # Number of descriptors the device wrote w/ DMA
system.tsunami.ethernet.descDmaReadBytes            0                       # number of descriptor bytes read w/ DMA
system.tsunami.ethernet.descDmaWriteBytes            0                       # number of descriptor bytes write w/ DMA
system.tsunami.ethernet.droppedPackets              0                       # number of packets dropped
system.tsunami.ethernet.postedInterrupts            0                       # number of posts to CPU
system.tsunami.ethernet.postedRxDesc                0                       # number of RxDesc interrupts posted to CPU
system.tsunami.ethernet.postedRxIdle                0                       # number of rxIdle interrupts posted to CPU
system.tsunami.ethernet.postedRxOk                  0                       # number of RxOk interrupts posted to CPU
system.tsunami.ethernet.postedRxOrn                 0                       # number of RxOrn posted to CPU
system.tsunami.ethernet.postedSwi                   0                       # number of software interrupts posted to CPU
system.tsunami.ethernet.postedTxDesc                0                       # number of TxDesc interrupts posted to CPU
system.tsunami.ethernet.postedTxIdle                0                       # number of TxIdle interrupts posted to CPU
system.tsunami.ethernet.postedTxOk                  0                       # number of TxOk interrupts posted to CPU
system.tsunami.ethernet.totalRxDesc                 0                       # total number of RxDesc written to ISR
system.tsunami.ethernet.totalRxIdle                 0                       # total number of RxIdle written to ISR
system.tsunami.ethernet.totalRxOk                   0                       # total number of RxOk written to ISR
system.tsunami.ethernet.totalRxOrn                  0                       # total number of RxOrn written to ISR
system.tsunami.ethernet.totalSwi                    0                       # total number of Swi written to ISR
system.tsunami.ethernet.totalTxDesc                 0                       # total number of TxDesc written to ISR
system.tsunami.ethernet.totalTxIdle                 0                       # total number of TxIdle written to ISR
system.tsunami.ethernet.totalTxOk                   0                       # total number of TxOk written to ISR
system.bridge.pwrStateResidencyTicks::UNDEFINED 2542176967500                       # Cumulative time (in ticks) in various power states
system.voltage_domain.voltage                       1                       # Voltage in Volts
system.iocache.pwrStateResidencyTicks::UNDEFINED 2542176967500                       # Cumulative time (in ticks) in various power states
system.iocache.demand_misses::.tsunami.ide          195                       # number of demand (read+write) misses
system.iocache.demand_misses::total               195                       # number of demand (read+write) misses
system.iocache.overall_misses::.tsunami.ide          195                       # number of overall misses
system.iocache.overall_misses::total              195                       # number of overall misses
system.iocache.demand_miss_latency::.tsunami.ide     22682456                       # number of demand (read+write) miss cycles
system.iocache.demand_miss_latency::total     22682456                       # number of demand (read+write) miss cycles
system.iocache.overall_miss_latency::.tsunami.ide     22682456                       # number of overall miss cycles
system.iocache.overall_miss_latency::total     22682456                       # number of overall miss cycles
system.iocache.demand_accesses::.tsunami.ide          195                       # number of demand (read+write) accesses
system.iocache.demand_accesses::total             195                       # number of demand (read+write) accesses
system.iocache.overall_accesses::.tsunami.ide          195                       # number of overall (read+write) accesses
system.iocache.overall_accesses::total            195                       # number of overall (read+write) accesses
system.iocache.demand_miss_rate::.tsunami.ide            1                       # miss rate for demand accesses
system.iocache.demand_miss_rate::total              1                       # miss rate for demand accesses
system.iocache.overall_miss_rate::.tsunami.ide            1                       # miss rate for overall accesses
system.iocache.overall_miss_rate::total             1                       # miss rate for overall accesses
system.iocache.demand_avg_miss_latency::.tsunami.ide 116320.287179                       # average overall miss latency
system.iocache.demand_avg_miss_latency::total 116320.287179                       # average overall miss latency
system.iocache.overall_avg_miss_latency::.tsunami.ide 116320.287179                       # average overall miss latency
system.iocache.overall_avg_miss_latency::total 116320.287179                       # average overall miss latency
system.iocache.blocked_cycles::no_mshrs             0                       # number of cycles access was blocked
system.iocache.blocked_cycles::no_targets            0                       # number of cycles access was blocked
system.iocache.blocked::no_mshrs                    0                       # number of cycles access was blocked
system.iocache.blocked::no_targets                  0                       # number of cycles access was blocked
system.iocache.avg_blocked_cycles::no_mshrs          nan                       # average number of cycles each access was blocked
system.iocache.avg_blocked_cycles::no_targets          nan                       # average number of cycles each access was blocked
system.iocache.writebacks::.writebacks            176                       # number of writebacks
system.iocache.writebacks::total                  176                       # number of writebacks
system.iocache.demand_mshr_misses::.tsunami.ide          195                       # number of demand (read+write) MSHR misses
system.iocache.demand_mshr_misses::total          195                       # number of demand (read+write) MSHR misses
system.iocache.overall_mshr_misses::.tsunami.ide          195                       # number of overall MSHR misses
system.iocache.overall_mshr_misses::total          195                       # number of overall MSHR misses
system.iocache.demand_mshr_miss_latency::.tsunami.ide     12917492                       # number of demand (read+write) MSHR miss cycles
system.iocache.demand_mshr_miss_latency::total     12917492                       # number of demand (read+write) MSHR miss cycles
system.iocache.overall_mshr_miss_latency::.tsunami.ide     12917492                       # number of overall MSHR miss cycles
system.iocache.overall_mshr_miss_latency::total     12917492                       # number of overall MSHR miss cycles
system.iocache.demand_mshr_miss_rate::.tsunami.ide            1                       # mshr miss rate for demand accesses
system.iocache.demand_mshr_miss_rate::total            1                       # mshr miss rate for demand accesses
system.iocache.overall_mshr_miss_rate::.tsunami.ide            1                       # mshr miss rate for overall accesses
system.iocache.overall_mshr_miss_rate::total            1                       # mshr miss rate for overall accesses
system.iocache.demand_avg_mshr_miss_latency::.tsunami.ide 66243.548718                       # average overall mshr miss latency
system.iocache.demand_avg_mshr_miss_latency::total 66243.548718                       # average overall mshr miss latency
system.iocache.overall_avg_mshr_miss_latency::.tsunami.ide 66243.548718                       # average overall mshr miss latency
system.iocache.overall_avg_mshr_miss_latency::total 66243.548718                       # average overall mshr miss latency
system.iocache.replacements                       179                       # number of replacements
system.iocache.ReadReq_misses::.tsunami.ide            3                       # number of ReadReq misses
system.iocache.ReadReq_misses::total                3                       # number of ReadReq misses
system.iocache.ReadReq_miss_latency::.tsunami.ide       349497                       # number of ReadReq miss cycles
system.iocache.ReadReq_miss_latency::total       349497                       # number of ReadReq miss cycles
system.iocache.ReadReq_accesses::.tsunami.ide            3                       # number of ReadReq accesses(hits+misses)
system.iocache.ReadReq_accesses::total              3                       # number of ReadReq accesses(hits+misses)
system.iocache.ReadReq_miss_rate::.tsunami.ide            1                       # miss rate for ReadReq accesses
system.iocache.ReadReq_miss_rate::total             1                       # miss rate for ReadReq accesses
system.iocache.ReadReq_avg_miss_latency::.tsunami.ide       116499                       # average ReadReq miss latency
system.iocache.ReadReq_avg_miss_latency::total       116499                       # average ReadReq miss latency
system.iocache.ReadReq_mshr_misses::.tsunami.ide            3                       # number of ReadReq MSHR misses
system.iocache.ReadReq_mshr_misses::total            3                       # number of ReadReq MSHR misses
system.iocache.ReadReq_mshr_miss_latency::.tsunami.ide       199497                       # number of ReadReq MSHR miss cycles
system.iocache.ReadReq_mshr_miss_latency::total       199497                       # number of ReadReq MSHR miss cycles
system.iocache.ReadReq_mshr_miss_rate::.tsunami.ide            1                       # mshr miss rate for ReadReq accesses
system.iocache.ReadReq_mshr_miss_rate::total            1                       # mshr miss rate for ReadReq accesses
system.iocache.ReadReq_avg_mshr_miss_latency::.tsunami.ide        66499                       # average ReadReq mshr miss latency
system.iocache.ReadReq_avg_mshr_miss_latency::total        66499                       # average ReadReq mshr miss latency
system.iocache.WriteLineReq_misses::.tsunami.ide          192                       # number of WriteLineReq misses
system.iocache.WriteLineReq_misses::total          192                       # number of WriteLineReq misses
system.iocache.WriteLineReq_miss_latency::.tsunami.ide     22332959                       # number of WriteLineReq miss cycles
system.iocache.WriteLineReq_miss_latency::total     22332959                       # number of WriteLineReq miss cycles
system.iocache.WriteLineReq_accesses::.tsunami.ide          192                       # number of WriteLineReq accesses(hits+misses)
system.iocache.WriteLineReq_accesses::total          192                       # number of WriteLineReq accesses(hits+misses)
system.iocache.WriteLineReq_miss_rate::.tsunami.ide            1                       # miss rate for WriteLineReq accesses
system.iocache.WriteLineReq_miss_rate::total            1                       # miss rate for WriteLineReq accesses
system.iocache.WriteLineReq_avg_miss_latency::.tsunami.ide 116317.494792                       # average WriteLineReq miss latency
system.iocache.WriteLineReq_avg_miss_latency::total 116317.494792                       # average WriteLineReq miss latency
system.iocache.WriteLineReq_mshr_misses::.tsunami.ide          192                       # number of WriteLineReq MSHR misses
system.iocache.WriteLineReq_mshr_misses::total          192                       # number of WriteLineReq MSHR misses
system.iocache.WriteLineReq_mshr_miss_latency::.tsunami.ide     12717995                       # number of WriteLineReq MSHR miss cycles
system.iocache.WriteLineReq_mshr_miss_latency::total     12717995                       # number of WriteLineReq MSHR miss cycles
system.iocache.WriteLineReq_mshr_miss_rate::.tsunami.ide            1                       # mshr miss rate for WriteLineReq accesses
system.iocache.WriteLineReq_mshr_miss_rate::total            1                       # mshr miss rate for WriteLineReq accesses
system.iocache.WriteLineReq_avg_mshr_miss_latency::.tsunami.ide 66239.557292                       # average WriteLineReq mshr miss latency
system.iocache.WriteLineReq_avg_mshr_miss_latency::total 66239.557292                       # average WriteLineReq mshr miss latency
system.iocache.tags.pwrStateResidencyTicks::UNDEFINED 2542176967500                       # Cumulative time (in ticks) in various power states
system.iocache.tags.tagsinuse                3.283356                       # Cycle average of tags in use
system.iocache.tags.total_refs                    179                       # Total number of references to valid blocks.
system.iocache.tags.sampled_refs                  179                       # Sample count of references to valid blocks.
system.iocache.tags.avg_refs                        1                       # Average number of references to valid blocks.
system.iocache.tags.warmup_cycle         2539679078000                       # Cycle when the warmup percentage was hit.
system.iocache.tags.occ_blocks::.tsunami.ide     3.283356                       # Average occupied blocks per requestor
system.iocache.tags.occ_percent::.tsunami.ide     0.205210                       # Average percentage of cache occupancy
system.iocache.tags.occ_percent::total       0.205210                       # Average percentage of cache occupancy
system.iocache.tags.occ_task_id_blocks::1023           16                       # Occupied blocks per task id
system.iocache.tags.age_task_id_blocks_1023::3           16                       # Occupied blocks per task id
system.iocache.tags.occ_task_id_percent::1023            1                       # Percentage of cache occupancy per task id
system.iocache.tags.tag_accesses                 1755                       # Number of tag accesses
system.iocache.tags.data_accesses                1755                       # Number of data accesses
system.membus.pwrStateResidencyTicks::UNDEFINED 2542176967500                       # Cumulative time (in ticks) in various power states
system.membus.trans_dist::ReadReq                 108                       # Transaction distribution
system.membus.trans_dist::ReadResp             130942                       # Transaction distribution
system.membus.trans_dist::WriteReq                100                       # Transaction distribution
system.membus.trans_dist::WriteResp               100                       # Transaction distribution
system.membus.trans_dist::WritebackDirty        34916                       # Transaction distribution
system.membus.trans_dist::WritebackClean        88891                       # Transaction distribution
system.membus.trans_dist::CleanEvict            34565                       # Transaction distribution
system.membus.trans_dist::UpgradeReq               15                       # Transaction distribution
system.membus.trans_dist::ReadExReq             28976                       # Transaction distribution
system.membus.trans_dist::ReadExResp            28976                       # Transaction distribution
system.membus.trans_dist::ReadCleanReq          89481                       # Transaction distribution
system.membus.trans_dist::ReadSharedReq         41356                       # Transaction distribution
system.membus.trans_dist::BadAddressError            3                       # Transaction distribution
system.membus.trans_dist::InvalidateReq           192                       # Transaction distribution
system.membus.pkt_count_system.iocache.mem_side::system.mem_ctrls.port          374                       # Packet count per connected master and slave (bytes)
system.membus.pkt_count_system.iocache.mem_side::total          374                       # Packet count per connected master and slave (bytes)
system.membus.pkt_count_system.cpu.icache.mem_side::system.mem_ctrls.port       267791                       # Packet count per connected master and slave (bytes)
system.membus.pkt_count_system.cpu.icache.mem_side::total       267791                       # Packet count per connected master and slave (bytes)
system.membus.pkt_count_system.cpu.dcache.mem_side::system.bridge.slave          416                       # Packet count per connected master and slave (bytes)
system.membus.pkt_count_system.cpu.dcache.mem_side::system.mem_ctrls.port       209969                       # Packet count per connected master and slave (bytes)
system.membus.pkt_count_system.cpu.dcache.mem_side::system.membus.badaddr_responder.pio            6                       # Packet count per connected master and slave (bytes)
system.membus.pkt_count_system.cpu.dcache.mem_side::total       210391                       # Packet count per connected master and slave (bytes)
system.membus.pkt_count::total                 478556                       # Packet count per connected master and slave (bytes)
system.membus.pkt_size_system.iocache.mem_side::system.mem_ctrls.port        11264                       # Cumulative packet size per connected master and slave (bytes)
system.membus.pkt_size_system.iocache.mem_side::total        11264                       # Cumulative packet size per connected master and slave (bytes)
system.membus.pkt_size_system.cpu.icache.mem_side::system.mem_ctrls.port     11411840                       # Cumulative packet size per connected master and slave (bytes)
system.membus.pkt_size_system.cpu.icache.mem_side::total     11411840                       # Cumulative packet size per connected master and slave (bytes)
system.membus.pkt_size_system.cpu.dcache.mem_side::system.bridge.slave          441                       # Cumulative packet size per connected master and slave (bytes)
system.membus.pkt_size_system.cpu.dcache.mem_side::system.mem_ctrls.port      6724224                       # Cumulative packet size per connected master and slave (bytes)
system.membus.pkt_size_system.cpu.dcache.mem_side::total      6724665                       # Cumulative packet size per connected master and slave (bytes)
system.membus.pkt_size::total                18147769                       # Cumulative packet size per connected master and slave (bytes)
system.membus.snoops                               65                       # Total snoops (count)
system.membus.snoopTraffic                       4160                       # Total snoop traffic (bytes)
system.membus.snoop_fanout::samples            160228                       # Request fanout histogram
system.membus.snoop_fanout::mean             0.002721                       # Request fanout histogram
system.membus.snoop_fanout::stdev            0.052094                       # Request fanout histogram
system.membus.snoop_fanout::underflows              0      0.00%      0.00% # Request fanout histogram
system.membus.snoop_fanout::0                  159792     99.73%     99.73% # Request fanout histogram
system.membus.snoop_fanout::1                     436      0.27%    100.00% # Request fanout histogram
system.membus.snoop_fanout::2                       0      0.00%    100.00% # Request fanout histogram
system.membus.snoop_fanout::3                       0      0.00%    100.00% # Request fanout histogram
system.membus.snoop_fanout::overflows               0      0.00%    100.00% # Request fanout histogram
system.membus.snoop_fanout::min_value               0                       # Request fanout histogram
system.membus.snoop_fanout::max_value               1                       # Request fanout histogram
system.membus.snoop_fanout::total              160228                       # Request fanout histogram
system.membus.reqLayer0.occupancy              353500                       # Layer occupancy (ticks)
system.membus.reqLayer0.utilization               0.0                       # Layer utilization (%)
system.membus.reqLayer1.occupancy           836533039                       # Layer occupancy (ticks)
system.membus.reqLayer1.utilization               6.9                       # Layer utilization (%)
system.membus.reqLayer2.occupancy                4000                       # Layer occupancy (ticks)
system.membus.reqLayer2.utilization               0.0                       # Layer utilization (%)
system.membus.respLayer1.occupancy              17997                       # Layer occupancy (ticks)
system.membus.respLayer1.utilization              0.0                       # Layer utilization (%)
system.membus.respLayer3.occupancy          378334750                       # Layer occupancy (ticks)
system.membus.respLayer3.utilization              3.1                       # Layer utilization (%)
system.membus.badaddr_responder.pwrStateResidencyTicks::UNDEFINED 2542176967500                       # Cumulative time (in ticks) in various power states
system.membus.respLayer2.occupancy          474497000                       # Layer occupancy (ticks)
system.membus.respLayer2.utilization              3.9                       # Layer utilization (%)
system.clk_domain.clock                          1000                       # Clock period in ticks
system.tsunami.fake_uart1.pwrStateResidencyTicks::UNDEFINED 2542176967500                       # Cumulative time (in ticks) in various power states
system.tsunami.fake_uart2.pwrStateResidencyTicks::UNDEFINED 2542176967500                       # Cumulative time (in ticks) in various power states
system.tsunami.fake_uart3.pwrStateResidencyTicks::UNDEFINED 2542176967500                       # Cumulative time (in ticks) in various power states
system.tsunami.fake_uart4.pwrStateResidencyTicks::UNDEFINED 2542176967500                       # Cumulative time (in ticks) in various power states
system.tsunami.fake_ppc.pwrStateResidencyTicks::UNDEFINED 2542176967500                       # Cumulative time (in ticks) in various power states
system.tsunami.cchip.pwrStateResidencyTicks::UNDEFINED 2542176967500                       # Cumulative time (in ticks) in various power states
system.tsunami.io.pwrStateResidencyTicks::UNDEFINED 2542176967500                       # Cumulative time (in ticks) in various power states
system.tsunami.pchip.pwrStateResidencyTicks::UNDEFINED 2542176967500                       # Cumulative time (in ticks) in various power states
system.tsunami.fake_ata1.pwrStateResidencyTicks::UNDEFINED 2542176967500                       # Cumulative time (in ticks) in various power states
system.tsunami.fake_ata0.pwrStateResidencyTicks::UNDEFINED 2542176967500                       # Cumulative time (in ticks) in various power states
system.tsunami.backdoor.pwrStateResidencyTicks::UNDEFINED 2542176967500                       # Cumulative time (in ticks) in various power states
system.tsunami.fake_pnp_read3.pwrStateResidencyTicks::UNDEFINED 2542176967500                       # Cumulative time (in ticks) in various power states
system.tsunami.fake_pnp_read2.pwrStateResidencyTicks::UNDEFINED 2542176967500                       # Cumulative time (in ticks) in various power states
system.tsunami.fake_pnp_read1.pwrStateResidencyTicks::UNDEFINED 2542176967500                       # Cumulative time (in ticks) in various power states
system.tsunami.fake_pnp_read0.pwrStateResidencyTicks::UNDEFINED 2542176967500                       # Cumulative time (in ticks) in various power states
system.tsunami.fake_pnp_read7.pwrStateResidencyTicks::UNDEFINED 2542176967500                       # Cumulative time (in ticks) in various power states
system.tsunami.fake_pnp_read6.pwrStateResidencyTicks::UNDEFINED 2542176967500                       # Cumulative time (in ticks) in various power states
system.tsunami.fake_pnp_read5.pwrStateResidencyTicks::UNDEFINED 2542176967500                       # Cumulative time (in ticks) in various power states
system.tsunami.fake_pnp_read4.pwrStateResidencyTicks::UNDEFINED 2542176967500                       # Cumulative time (in ticks) in various power states
system.tsunami.fake_pnp_write.pwrStateResidencyTicks::UNDEFINED 2542176967500                       # Cumulative time (in ticks) in various power states
system.tsunami.fb.pwrStateResidencyTicks::UNDEFINED 2542176967500                       # Cumulative time (in ticks) in various power states
system.tsunami.fake_pnp_addr.pwrStateResidencyTicks::UNDEFINED 2542176967500                       # Cumulative time (in ticks) in various power states
system.tsunami.fake_OROM.pwrStateResidencyTicks::UNDEFINED 2542176967500                       # Cumulative time (in ticks) in various power states
system.tsunami.uart.pwrStateResidencyTicks::UNDEFINED 2542176967500                       # Cumulative time (in ticks) in various power states
system.tsunami.fake_sm_chip.pwrStateResidencyTicks::UNDEFINED 2542176967500                       # Cumulative time (in ticks) in various power states
system.tsunami.ethernet.pwrStateResidencyTicks::UNDEFINED 2542176967500                       # Cumulative time (in ticks) in various power states
system.tsunami.ide.pwrStateResidencyTicks::UNDEFINED 2542176967500                       # Cumulative time (in ticks) in various power states
system.cpu_voltage_domain.voltage                   1                       # Voltage in Volts
system.mem_ctrls.pwrStateResidencyTicks::UNDEFINED 2542176967500                       # Cumulative time (in ticks) in various power states
system.mem_ctrls.bytes_read::.cpu.inst        5722816                       # Number of bytes read from this memory
system.mem_ctrls.bytes_read::.cpu.data        4500864                       # Number of bytes read from this memory
system.mem_ctrls.bytes_read::total           10223680                       # Number of bytes read from this memory
system.mem_ctrls.bytes_inst_read::.cpu.inst      5722816                       # Number of instructions bytes read from this memory
system.mem_ctrls.bytes_inst_read::total       5722816                       # Number of instructions bytes read from this memory
system.mem_ctrls.bytes_written::.writebacks      2234624                       # Number of bytes written to this memory
system.mem_ctrls.bytes_written::total         2234624                       # Number of bytes written to this memory
system.mem_ctrls.num_reads::.cpu.inst           89419                       # Number of read requests responded to by this memory
system.mem_ctrls.num_reads::.cpu.data           70326                       # Number of read requests responded to by this memory
system.mem_ctrls.num_reads::total              159745                       # Number of read requests responded to by this memory
system.mem_ctrls.num_writes::.writebacks        34916                       # Number of write requests responded to by this memory
system.mem_ctrls.num_writes::total              34916                       # Number of write requests responded to by this memory
system.mem_ctrls.bw_read::.cpu.inst         470350816                       # Total read bandwidth from this memory (bytes/s)
system.mem_ctrls.bw_read::.cpu.data         369920168                       # Total read bandwidth from this memory (bytes/s)
system.mem_ctrls.bw_read::total             840270984                       # Total read bandwidth from this memory (bytes/s)
system.mem_ctrls.bw_inst_read::.cpu.inst    470350816                       # Instruction read bandwidth from this memory (bytes/s)
system.mem_ctrls.bw_inst_read::total        470350816                       # Instruction read bandwidth from this memory (bytes/s)
system.mem_ctrls.bw_write::.writebacks      183660845                       # Write bandwidth from this memory (bytes/s)
system.mem_ctrls.bw_write::total            183660845                       # Write bandwidth from this memory (bytes/s)
system.mem_ctrls.bw_total::.writebacks      183660845                       # Total bandwidth to/from this memory (bytes/s)
system.mem_ctrls.bw_total::.cpu.inst        470350816                       # Total bandwidth to/from this memory (bytes/s)
system.mem_ctrls.bw_total::.cpu.data        369920168                       # Total bandwidth to/from this memory (bytes/s)
system.mem_ctrls.bw_total::total           1023931829                       # Total bandwidth to/from this memory (bytes/s)
system.mem_ctrls.avgPriority_.writebacks::samples    121437.00                       # Average QoS priority value for accepted requests
system.mem_ctrls.avgPriority_.cpu.inst::samples     79389.00                       # Average QoS priority value for accepted requests
system.mem_ctrls.avgPriority_.cpu.data::samples     69825.00                       # Average QoS priority value for accepted requests
system.mem_ctrls.priorityMinLatency      0.000000018750                       # per QoS priority minimum request to response latency (s)
system.mem_ctrls.priorityMaxLatency      0.000208916750                       # per QoS priority maximum request to response latency (s)
system.mem_ctrls.numReadWriteTurnArounds         7474                       # Number of turnarounds from READ to WRITE
system.mem_ctrls.numWriteReadTurnArounds         7474                       # Number of turnarounds from WRITE to READ
system.mem_ctrls.numStayReadState              414265                       # Number of times bus staying in READ state
system.mem_ctrls.numStayWriteState             114047                       # Number of times bus staying in WRITE state
system.mem_ctrls.readReqs                      159745                       # Number of read requests accepted
system.mem_ctrls.writeReqs                     123591                       # Number of write requests accepted
system.mem_ctrls.readBursts                    159745                       # Number of DRAM read bursts, including those serviced by the write queue
system.mem_ctrls.writeBursts                   123591                       # Number of DRAM write bursts, including those merged in the write queue
system.mem_ctrls.servicedByWrQ                  10531                       # Number of DRAM read bursts serviced by the write queue
system.mem_ctrls.mergedWrBursts                  2154                       # Number of DRAM write bursts merged with an existing one
system.mem_ctrls.neitherReadNorWriteReqs            0                       # Number of requests that are neither read nor write
system.mem_ctrls.perBankRdBursts::0              8929                       # Per bank write bursts
system.mem_ctrls.perBankRdBursts::1              6678                       # Per bank write bursts
system.mem_ctrls.perBankRdBursts::2             10218                       # Per bank write bursts
system.mem_ctrls.perBankRdBursts::3              7223                       # Per bank write bursts
system.mem_ctrls.perBankRdBursts::4              8747                       # Per bank write bursts
system.mem_ctrls.perBankRdBursts::5             10090                       # Per bank write bursts
system.mem_ctrls.perBankRdBursts::6              8846                       # Per bank write bursts
system.mem_ctrls.perBankRdBursts::7              8755                       # Per bank write bursts
system.mem_ctrls.perBankRdBursts::8             12013                       # Per bank write bursts
system.mem_ctrls.perBankRdBursts::9              9404                       # Per bank write bursts
system.mem_ctrls.perBankRdBursts::10            10810                       # Per bank write bursts
system.mem_ctrls.perBankRdBursts::11            12235                       # Per bank write bursts
system.mem_ctrls.perBankRdBursts::12             8903                       # Per bank write bursts
system.mem_ctrls.perBankRdBursts::13            13790                       # Per bank write bursts
system.mem_ctrls.perBankRdBursts::14             5620                       # Per bank write bursts
system.mem_ctrls.perBankRdBursts::15             6953                       # Per bank write bursts
system.mem_ctrls.perBankWrBursts::0              7325                       # Per bank write bursts
system.mem_ctrls.perBankWrBursts::1              4487                       # Per bank write bursts
system.mem_ctrls.perBankWrBursts::2              8966                       # Per bank write bursts
system.mem_ctrls.perBankWrBursts::3              8044                       # Per bank write bursts
system.mem_ctrls.perBankWrBursts::4              7912                       # Per bank write bursts
system.mem_ctrls.perBankWrBursts::5              9872                       # Per bank write bursts
system.mem_ctrls.perBankWrBursts::6              7648                       # Per bank write bursts
system.mem_ctrls.perBankWrBursts::7              6981                       # Per bank write bursts
system.mem_ctrls.perBankWrBursts::8             10770                       # Per bank write bursts
system.mem_ctrls.perBankWrBursts::9              8523                       # Per bank write bursts
system.mem_ctrls.perBankWrBursts::10             8071                       # Per bank write bursts
system.mem_ctrls.perBankWrBursts::11             8167                       # Per bank write bursts
system.mem_ctrls.perBankWrBursts::12             5508                       # Per bank write bursts
system.mem_ctrls.perBankWrBursts::13            10123                       # Per bank write bursts
system.mem_ctrls.perBankWrBursts::14             3225                       # Per bank write bursts
system.mem_ctrls.perBankWrBursts::15             5786                       # Per bank write bursts
system.mem_ctrls.avgRdQLen                       1.09                       # Average read queue length when enqueuing
system.mem_ctrls.avgWrQLen                      25.67                       # Average write queue length when enqueuing
system.mem_ctrls.totQLat                   2045798500                       # Total ticks spent queuing
system.mem_ctrls.totBusLat                  746070000                       # Total ticks spent in databus transfers
system.mem_ctrls.totMemAccLat              4843561000                       # Total ticks spent from burst creation until serviced by the DRAM
system.mem_ctrls.avgQLat                     13710.50                       # Average queueing delay per DRAM burst
system.mem_ctrls.avgBusLat                    5000.00                       # Average bus latency per DRAM burst
system.mem_ctrls.avgMemAccLat                32460.50                       # Average memory access latency per DRAM burst
system.mem_ctrls.numRdRetry                         0                       # Number of times read queue was full causing retry
system.mem_ctrls.numWrRetry                         0                       # Number of times write queue was full causing retry
system.mem_ctrls.readRowHits                   105639                       # Number of row buffer hits during reads
system.mem_ctrls.writeRowHits                   81965                       # Number of row buffer hits during writes
system.mem_ctrls.readRowHitRate                 70.80                       # Row buffer hit rate for reads
system.mem_ctrls.writeRowHitRate                67.50                       # Row buffer hit rate for writes
system.mem_ctrls.readPktSize::0                     0                       # Read request sizes (log2)
system.mem_ctrls.readPktSize::1                     0                       # Read request sizes (log2)
system.mem_ctrls.readPktSize::2                     0                       # Read request sizes (log2)
system.mem_ctrls.readPktSize::3                     0                       # Read request sizes (log2)
system.mem_ctrls.readPktSize::4                     0                       # Read request sizes (log2)
system.mem_ctrls.readPktSize::5                     0                       # Read request sizes (log2)
system.mem_ctrls.readPktSize::6                159745                       # Read request sizes (log2)
system.mem_ctrls.writePktSize::0                    0                       # Write request sizes (log2)
system.mem_ctrls.writePktSize::1                    0                       # Write request sizes (log2)
system.mem_ctrls.writePktSize::2                    0                       # Write request sizes (log2)
system.mem_ctrls.writePktSize::3                    0                       # Write request sizes (log2)
system.mem_ctrls.writePktSize::4                    0                       # Write request sizes (log2)
system.mem_ctrls.writePktSize::5                    0                       # Write request sizes (log2)
system.mem_ctrls.writePktSize::6               123591                       # Write request sizes (log2)
system.mem_ctrls.rdQLenPdf::0                  136656                       # What read queue length does an incoming req see
system.mem_ctrls.rdQLenPdf::1                   12251                       # What read queue length does an incoming req see
system.mem_ctrls.rdQLenPdf::2                     307                       # What read queue length does an incoming req see
system.mem_ctrls.rdQLenPdf::3                       0                       # What read queue length does an incoming req see
system.mem_ctrls.rdQLenPdf::4                       0                       # What read queue length does an incoming req see
system.mem_ctrls.rdQLenPdf::5                       0                       # What read queue length does an incoming req see
system.mem_ctrls.rdQLenPdf::6                       0                       # What read queue length does an incoming req see
system.mem_ctrls.rdQLenPdf::7                       0                       # What read queue length does an incoming req see
system.mem_ctrls.rdQLenPdf::8                       0                       # What read queue length does an incoming req see
system.mem_ctrls.rdQLenPdf::9                       0                       # What read queue length does an incoming req see
system.mem_ctrls.rdQLenPdf::10                      0                       # What read queue length does an incoming req see
system.mem_ctrls.rdQLenPdf::11                      0                       # What read queue length does an incoming req see
system.mem_ctrls.rdQLenPdf::12                      0                       # What read queue length does an incoming req see
system.mem_ctrls.rdQLenPdf::13                      0                       # What read queue length does an incoming req see
system.mem_ctrls.rdQLenPdf::14                      0                       # What read queue length does an incoming req see
system.mem_ctrls.rdQLenPdf::15                      0                       # What read queue length does an incoming req see
system.mem_ctrls.rdQLenPdf::16                      0                       # What read queue length does an incoming req see
system.mem_ctrls.rdQLenPdf::17                      0                       # What read queue length does an incoming req see
system.mem_ctrls.rdQLenPdf::18                      0                       # What read queue length does an incoming req see
system.mem_ctrls.rdQLenPdf::19                      0                       # What read queue length does an incoming req see
system.mem_ctrls.rdQLenPdf::20                      0                       # What read queue length does an incoming req see
system.mem_ctrls.rdQLenPdf::21                      0                       # What read queue length does an incoming req see
system.mem_ctrls.rdQLenPdf::22                      0                       # What read queue length does an incoming req see
system.mem_ctrls.rdQLenPdf::23                      0                       # What read queue length does an incoming req see
system.mem_ctrls.rdQLenPdf::24                      0                       # What read queue length does an incoming req see
system.mem_ctrls.rdQLenPdf::25                      0                       # What read queue length does an incoming req see
system.mem_ctrls.rdQLenPdf::26                      0                       # What read queue length does an incoming req see
system.mem_ctrls.rdQLenPdf::27                      0                       # What read queue length does an incoming req see
system.mem_ctrls.rdQLenPdf::28                      0                       # What read queue length does an incoming req see
system.mem_ctrls.rdQLenPdf::29                      0                       # What read queue length does an incoming req see
system.mem_ctrls.rdQLenPdf::30                      0                       # What read queue length does an incoming req see
system.mem_ctrls.rdQLenPdf::31                      0                       # What read queue length does an incoming req see
system.mem_ctrls.wrQLenPdf::0                       1                       # What write queue length does an incoming req see
system.mem_ctrls.wrQLenPdf::1                       1                       # What write queue length does an incoming req see
system.mem_ctrls.wrQLenPdf::2                       1                       # What write queue length does an incoming req see
system.mem_ctrls.wrQLenPdf::3                       1                       # What write queue length does an incoming req see
system.mem_ctrls.wrQLenPdf::4                       1                       # What write queue length does an incoming req see
system.mem_ctrls.wrQLenPdf::5                       1                       # What write queue length does an incoming req see
system.mem_ctrls.wrQLenPdf::6                       1                       # What write queue length does an incoming req see
system.mem_ctrls.wrQLenPdf::7                       1                       # What write queue length does an incoming req see
system.mem_ctrls.wrQLenPdf::8                       1                       # What write queue length does an incoming req see
system.mem_ctrls.wrQLenPdf::9                       1                       # What write queue length does an incoming req see
system.mem_ctrls.wrQLenPdf::10                      1                       # What write queue length does an incoming req see
system.mem_ctrls.wrQLenPdf::11                      1                       # What write queue length does an incoming req see
system.mem_ctrls.wrQLenPdf::12                      1                       # What write queue length does an incoming req see
system.mem_ctrls.wrQLenPdf::13                      1                       # What write queue length does an incoming req see
system.mem_ctrls.wrQLenPdf::14                      1                       # What write queue length does an incoming req see
system.mem_ctrls.wrQLenPdf::15                    684                       # What write queue length does an incoming req see
system.mem_ctrls.wrQLenPdf::16                    774                       # What write queue length does an incoming req see
system.mem_ctrls.wrQLenPdf::17                   6875                       # What write queue length does an incoming req see
system.mem_ctrls.wrQLenPdf::18                   7488                       # What write queue length does an incoming req see
system.mem_ctrls.wrQLenPdf::19                   7605                       # What write queue length does an incoming req see
system.mem_ctrls.wrQLenPdf::20                   7548                       # What write queue length does an incoming req see
system.mem_ctrls.wrQLenPdf::21                   7556                       # What write queue length does an incoming req see
system.mem_ctrls.wrQLenPdf::22                   7662                       # What write queue length does an incoming req see
system.mem_ctrls.wrQLenPdf::23                   7556                       # What write queue length does an incoming req see
system.mem_ctrls.wrQLenPdf::24                   7553                       # What write queue length does an incoming req see
system.mem_ctrls.wrQLenPdf::25                   7543                       # What write queue length does an incoming req see
system.mem_ctrls.wrQLenPdf::26                   7578                       # What write queue length does an incoming req see
system.mem_ctrls.wrQLenPdf::27                   7508                       # What write queue length does an incoming req see
system.mem_ctrls.wrQLenPdf::28                   7519                       # What write queue length does an incoming req see
system.mem_ctrls.wrQLenPdf::29                   7499                       # What write queue length does an incoming req see
system.mem_ctrls.wrQLenPdf::30                   7477                       # What write queue length does an incoming req see
system.mem_ctrls.wrQLenPdf::31                   7478                       # What write queue length does an incoming req see
system.mem_ctrls.wrQLenPdf::32                   7475                       # What write queue length does an incoming req see
system.mem_ctrls.wrQLenPdf::33                      9                       # What write queue length does an incoming req see
system.mem_ctrls.wrQLenPdf::34                      2                       # What write queue length does an incoming req see
system.mem_ctrls.wrQLenPdf::35                      1                       # What write queue length does an incoming req see
system.mem_ctrls.wrQLenPdf::36                      1                       # What write queue length does an incoming req see
system.mem_ctrls.wrQLenPdf::37                      1                       # What write queue length does an incoming req see
system.mem_ctrls.wrQLenPdf::38                      1                       # What write queue length does an incoming req see
system.mem_ctrls.wrQLenPdf::39                      1                       # What write queue length does an incoming req see
system.mem_ctrls.wrQLenPdf::40                      1                       # What write queue length does an incoming req see
system.mem_ctrls.wrQLenPdf::41                      1                       # What write queue length does an incoming req see
system.mem_ctrls.wrQLenPdf::42                      1                       # What write queue length does an incoming req see
system.mem_ctrls.wrQLenPdf::43                      1                       # What write queue length does an incoming req see
system.mem_ctrls.wrQLenPdf::44                      1                       # What write queue length does an incoming req see
system.mem_ctrls.wrQLenPdf::45                      1                       # What write queue length does an incoming req see
system.mem_ctrls.wrQLenPdf::46                      2                       # What write queue length does an incoming req see
system.mem_ctrls.wrQLenPdf::47                      1                       # What write queue length does an incoming req see
system.mem_ctrls.wrQLenPdf::48                      1                       # What write queue length does an incoming req see
system.mem_ctrls.wrQLenPdf::49                      1                       # What write queue length does an incoming req see
system.mem_ctrls.wrQLenPdf::50                      1                       # What write queue length does an incoming req see
system.mem_ctrls.wrQLenPdf::51                      1                       # What write queue length does an incoming req see
system.mem_ctrls.wrQLenPdf::52                      2                       # What write queue length does an incoming req see
system.mem_ctrls.wrQLenPdf::53                      1                       # What write queue length does an incoming req see
system.mem_ctrls.wrQLenPdf::54                      1                       # What write queue length does an incoming req see
system.mem_ctrls.wrQLenPdf::55                      1                       # What write queue length does an incoming req see
system.mem_ctrls.wrQLenPdf::56                      1                       # What write queue length does an incoming req see
system.mem_ctrls.wrQLenPdf::57                      1                       # What write queue length does an incoming req see
system.mem_ctrls.wrQLenPdf::58                      2                       # What write queue length does an incoming req see
system.mem_ctrls.wrQLenPdf::59                      2                       # What write queue length does an incoming req see
system.mem_ctrls.wrQLenPdf::60                      1                       # What write queue length does an incoming req see
system.mem_ctrls.wrQLenPdf::61                      1                       # What write queue length does an incoming req see
system.mem_ctrls.wrQLenPdf::62                      1                       # What write queue length does an incoming req see
system.mem_ctrls.wrQLenPdf::63                      1                       # What write queue length does an incoming req see
system.mem_ctrls.bytesPerActivate::samples        83005                       # Bytes accessed per row activation
system.mem_ctrls.bytesPerActivate::mean    208.621264                       # Bytes accessed per row activation
system.mem_ctrls.bytesPerActivate::gmean   140.337898                       # Bytes accessed per row activation
system.mem_ctrls.bytesPerActivate::stdev   224.825426                       # Bytes accessed per row activation
system.mem_ctrls.bytesPerActivate::0-127        35123     42.31%     42.31% # Bytes accessed per row activation
system.mem_ctrls.bytesPerActivate::128-255        24671     29.72%     72.04% # Bytes accessed per row activation
system.mem_ctrls.bytesPerActivate::256-383        10221     12.31%     84.35% # Bytes accessed per row activation
system.mem_ctrls.bytesPerActivate::384-511         4640      5.59%     89.94% # Bytes accessed per row activation
system.mem_ctrls.bytesPerActivate::512-639         2493      3.00%     92.94% # Bytes accessed per row activation
system.mem_ctrls.bytesPerActivate::640-767         1464      1.76%     94.71% # Bytes accessed per row activation
system.mem_ctrls.bytesPerActivate::768-895          972      1.17%     95.88% # Bytes accessed per row activation
system.mem_ctrls.bytesPerActivate::896-1023          609      0.73%     96.61% # Bytes accessed per row activation
system.mem_ctrls.bytesPerActivate::1024-1151         2812      3.39%    100.00% # Bytes accessed per row activation
system.mem_ctrls.bytesPerActivate::total        83005                       # Bytes accessed per row activation
system.mem_ctrls.rdPerTurnAround::samples         7474                       # Reads before turning the bus around for writes
system.mem_ctrls.rdPerTurnAround::mean      19.962804                       # Reads before turning the bus around for writes
system.mem_ctrls.rdPerTurnAround::gmean     18.365880                       # Reads before turning the bus around for writes
system.mem_ctrls.rdPerTurnAround::stdev     12.706339                       # Reads before turning the bus around for writes
system.mem_ctrls.rdPerTurnAround::0-15           1360     18.20%     18.20% # Reads before turning the bus around for writes
system.mem_ctrls.rdPerTurnAround::16-31          5615     75.13%     93.32% # Reads before turning the bus around for writes
system.mem_ctrls.rdPerTurnAround::32-47           323      4.32%     97.65% # Reads before turning the bus around for writes
system.mem_ctrls.rdPerTurnAround::48-63            78      1.04%     98.69% # Reads before turning the bus around for writes
system.mem_ctrls.rdPerTurnAround::64-79            33      0.44%     99.13% # Reads before turning the bus around for writes
system.mem_ctrls.rdPerTurnAround::80-95            22      0.29%     99.42% # Reads before turning the bus around for writes
system.mem_ctrls.rdPerTurnAround::96-111           14      0.19%     99.61% # Reads before turning the bus around for writes
system.mem_ctrls.rdPerTurnAround::112-127           10      0.13%     99.75% # Reads before turning the bus around for writes
system.mem_ctrls.rdPerTurnAround::128-143           10      0.13%     99.88% # Reads before turning the bus around for writes
system.mem_ctrls.rdPerTurnAround::144-159            4      0.05%     99.93% # Reads before turning the bus around for writes
system.mem_ctrls.rdPerTurnAround::160-175            2      0.03%     99.96% # Reads before turning the bus around for writes
system.mem_ctrls.rdPerTurnAround::176-191            1      0.01%     99.97% # Reads before turning the bus around for writes
system.mem_ctrls.rdPerTurnAround::256-271            1      0.01%     99.99% # Reads before turning the bus around for writes
system.mem_ctrls.rdPerTurnAround::416-431            1      0.01%    100.00% # Reads before turning the bus around for writes
system.mem_ctrls.rdPerTurnAround::total          7474                       # Reads before turning the bus around for writes
system.mem_ctrls.wrPerTurnAround::samples         7474                       # Writes before turning the bus around for reads
system.mem_ctrls.wrPerTurnAround::mean      16.244046                       # Writes before turning the bus around for reads
system.mem_ctrls.wrPerTurnAround::gmean     16.228416                       # Writes before turning the bus around for reads
system.mem_ctrls.wrPerTurnAround::stdev      0.744924                       # Writes before turning the bus around for reads
system.mem_ctrls.wrPerTurnAround::16             6667     89.20%     89.20% # Writes before turning the bus around for reads
system.mem_ctrls.wrPerTurnAround::17               86      1.15%     90.35% # Writes before turning the bus around for reads
system.mem_ctrls.wrPerTurnAround::18              489      6.54%     96.90% # Writes before turning the bus around for reads
system.mem_ctrls.wrPerTurnAround::19              174      2.33%     99.22% # Writes before turning the bus around for reads
system.mem_ctrls.wrPerTurnAround::20               53      0.71%     99.93% # Writes before turning the bus around for reads
system.mem_ctrls.wrPerTurnAround::21                4      0.05%     99.99% # Writes before turning the bus around for reads
system.mem_ctrls.wrPerTurnAround::22                1      0.01%    100.00% # Writes before turning the bus around for reads
system.mem_ctrls.wrPerTurnAround::total          7474                       # Writes before turning the bus around for reads
system.mem_ctrls.bytesReadDRAM                9549696                       # Total number of bytes read from DRAM
system.mem_ctrls.bytesReadWrQ                  673984                       # Total number of bytes read from write queue
system.mem_ctrls.bytesWritten                 7770112                       # Total number of bytes written to DRAM
system.mem_ctrls.bytesReadSys                10223680                       # Total read bytes from the system interface side
system.mem_ctrls.bytesWrittenSys              7909824                       # Total written bytes from the system interface side
system.mem_ctrls.avgRdBW                       784.88                       # Average DRAM read bandwidth in MiByte/s
system.mem_ctrls.avgWrBW                       638.62                       # Average achieved write bandwidth in MiByte/s
system.mem_ctrls.avgRdBWSys                    840.27                       # Average system read bandwidth in MiByte/s
system.mem_ctrls.avgWrBWSys                    650.10                       # Average system write bandwidth in MiByte/s
system.mem_ctrls.peakBW                      12800.00                       # Theoretical peak bandwidth in MiByte/s
system.mem_ctrls.busUtil                        11.12                       # Data bus utilization in percentage
system.mem_ctrls.busUtilRead                     6.13                       # Data bus utilization in percentage for reads
system.mem_ctrls.busUtilWrite                    4.99                       # Data bus utilization in percentage for writes
system.mem_ctrls.totGap                   12167117500                       # Total gap between requests
system.mem_ctrls.avgGap                      42942.36                       # Average gap between requests
system.mem_ctrls.masterReadBytes::.cpu.inst      5080896                       # Per-master bytes read from memory
system.mem_ctrls.masterReadBytes::.cpu.data      4468800                       # Per-master bytes read from memory
system.mem_ctrls.masterWriteBytes::.writebacks      7770112                       # Per-master bytes write to memory
system.mem_ctrls.masterReadRate::.cpu.inst 417592245.002875566483                       # Per-master bytes read from memory rate (Bytes/sec)
[...]
system.cpu.icache.tags.warmup_cycle                 0                       # Cycle when the warmup percentage was hit.
system.cpu.icache.tags.occ_blocks::.cpu.inst          512                       # Average occupied blocks per requestor
system.cpu.icache.tags.occ_percent::.cpu.inst            1                       # Average percentage of cache occupancy
system.cpu.icache.tags.occ_percent::total            1                       # Average percentage of cache occupancy
system.cpu.icache.tags.occ_task_id_blocks::1024          512                       # Occupied blocks per task id
system.cpu.icache.tags.age_task_id_blocks_1024::1            1                       # Occupied blocks per task id
system.cpu.icache.tags.age_task_id_blocks_1024::2          163                       # Occupied blocks per task id
system.cpu.icache.tags.age_task_id_blocks_1024::3          348                       # Occupied blocks per task id
system.cpu.icache.tags.occ_task_id_percent::1024            1                       # Percentage of cache occupancy per task id
system.cpu.icache.tags.tag_accesses         288742258                       # Number of tag accesses
system.cpu.icache.tags.data_accesses        288742258                       # Number of data accesses
system.cpu.dcache.pwrStateResidencyTicks::UNDEFINED 542593994500                       # Cumulative time (in ticks) in various power states
system.cpu.dcache.demand_hits::.cpu.data    131415334                       # number of demand (read+write) hits
system.cpu.dcache.demand_hits::total        131415334                       # number of demand (read+write) hits
system.cpu.dcache.overall_hits::.cpu.data    131415334                       # number of overall hits
system.cpu.dcache.overall_hits::total       131415334                       # number of overall hits
system.cpu.dcache.demand_misses::.cpu.data      4448397                       # number of demand (read+write) misses
system.cpu.dcache.demand_misses::total        4448397                       # number of demand (read+write) misses
system.cpu.dcache.overall_misses::.cpu.data      4448397                       # number of overall misses
system.cpu.dcache.overall_misses::total       4448397                       # number of overall misses
system.cpu.dcache.demand_miss_latency::.cpu.data 268545117000                       # number of demand (read+write) miss cycles
system.cpu.dcache.demand_miss_latency::total 268545117000                       # number of demand (read+write) miss cycles
system.cpu.dcache.overall_miss_latency::.cpu.data 268545117000                       # number of overall miss cycles
system.cpu.dcache.overall_miss_latency::total 268545117000                       # number of overall miss cycles
system.cpu.dcache.demand_accesses::.cpu.data    135863731                       # number of demand (read+write) accesses
system.cpu.dcache.demand_accesses::total    135863731                       # number of demand (read+write) accesses
system.cpu.dcache.overall_accesses::.cpu.data    135863731                       # number of overall (read+write) accesses
system.cpu.dcache.overall_accesses::total    135863731                       # number of overall (read+write) accesses
system.cpu.dcache.demand_miss_rate::.cpu.data     0.032742                       # miss rate for demand accesses
system.cpu.dcache.demand_miss_rate::total     0.032742                       # miss rate for demand accesses
system.cpu.dcache.overall_miss_rate::.cpu.data     0.032742                       # miss rate for overall accesses
system.cpu.dcache.overall_miss_rate::total     0.032742                       # miss rate for overall accesses
system.cpu.dcache.demand_avg_miss_latency::.cpu.data 60368.963696                       # average overall miss latency
system.cpu.dcache.demand_avg_miss_latency::total 60368.963696                       # average overall miss latency
system.cpu.dcache.overall_avg_miss_latency::.cpu.data 60368.963696                       # average overall miss latency
system.cpu.dcache.overall_avg_miss_latency::total 60368.963696                       # average overall miss latency
system.cpu.dcache.blocked_cycles::no_mshrs            0                       # number of cycles access was blocked
system.cpu.dcache.blocked_cycles::no_targets            0                       # number of cycles access was blocked
system.cpu.dcache.blocked::no_mshrs                 0                       # number of cycles access was blocked
system.cpu.dcache.blocked::no_targets               0                       # number of cycles access was blocked
system.cpu.dcache.avg_blocked_cycles::no_mshrs          nan                       # average number of cycles each access was blocked
system.cpu.dcache.avg_blocked_cycles::no_targets          nan                       # average number of cycles each access was blocked
system.cpu.dcache.writebacks::.writebacks      1903596                       # number of writebacks
system.cpu.dcache.writebacks::total           1903596                       # number of writebacks
system.cpu.dcache.demand_mshr_hits::.cpu.data      1235670                       # number of demand (read+write) MSHR hits
system.cpu.dcache.demand_mshr_hits::total      1235670                       # number of demand (read+write) MSHR hits
system.cpu.dcache.overall_mshr_hits::.cpu.data      1235670                       # number of overall MSHR hits
system.cpu.dcache.overall_mshr_hits::total      1235670                       # number of overall MSHR hits
system.cpu.dcache.demand_mshr_misses::.cpu.data      3212727                       # number of demand (read+write) MSHR misses
system.cpu.dcache.demand_mshr_misses::total      3212727                       # number of demand (read+write) MSHR misses
system.cpu.dcache.overall_mshr_misses::.cpu.data      3212727                       # number of overall MSHR misses
system.cpu.dcache.overall_mshr_misses::total      3212727                       # number of overall MSHR misses
system.cpu.dcache.overall_mshr_uncacheable_misses::.cpu.data         1224                       # number of overall MSHR uncacheable misses
system.cpu.dcache.overall_mshr_uncacheable_misses::total         1224                       # number of overall MSHR uncacheable misses
system.cpu.dcache.demand_mshr_miss_latency::.cpu.data 188177349500                       # number of demand (read+write) MSHR miss cycles
system.cpu.dcache.demand_mshr_miss_latency::total 188177349500                       # number of demand (read+write) MSHR miss cycles
system.cpu.dcache.overall_mshr_miss_latency::.cpu.data 188177349500                       # number of overall MSHR miss cycles
system.cpu.dcache.overall_mshr_miss_latency::total 188177349500                       # number of overall MSHR miss cycles
system.cpu.dcache.overall_mshr_uncacheable_latency::.cpu.data     49652500                       # number of overall MSHR uncacheable cycles
system.cpu.dcache.overall_mshr_uncacheable_latency::total     49652500                       # number of overall MSHR uncacheable cycles
system.cpu.dcache.demand_mshr_miss_rate::.cpu.data     0.023647                       # mshr miss rate for demand accesses
system.cpu.dcache.demand_mshr_miss_rate::total     0.023647                       # mshr miss rate for demand accesses
system.cpu.dcache.overall_mshr_miss_rate::.cpu.data     0.023647                       # mshr miss rate for overall accesses
system.cpu.dcache.overall_mshr_miss_rate::total     0.023647                       # mshr miss rate for overall accesses
system.cpu.dcache.demand_avg_mshr_miss_latency::.cpu.data 58572.468031                       # average overall mshr miss latency
system.cpu.dcache.demand_avg_mshr_miss_latency::total 58572.468031                       # average overall mshr miss latency
system.cpu.dcache.overall_avg_mshr_miss_latency::.cpu.data 58572.468031                       # average overall mshr miss latency
system.cpu.dcache.overall_avg_mshr_miss_latency::total 58572.468031                       # average overall mshr miss latency
system.cpu.dcache.overall_avg_mshr_uncacheable_latency::.cpu.data 40565.767974                       # average overall mshr uncacheable latency
system.cpu.dcache.overall_avg_mshr_uncacheable_latency::total 40565.767974                       # average overall mshr uncacheable latency
system.cpu.dcache.replacements                3216247                       # number of replacements
system.cpu.dcache.ReadReq_hits::.cpu.data     90860474                       # number of ReadReq hits
system.cpu.dcache.ReadReq_hits::total        90860474                       # number of ReadReq hits
system.cpu.dcache.ReadReq_misses::.cpu.data      1962745                       # number of ReadReq misses
system.cpu.dcache.ReadReq_misses::total       1962745                       # number of ReadReq misses
system.cpu.dcache.ReadReq_miss_latency::.cpu.data 114256702500                       # number of ReadReq miss cycles
system.cpu.dcache.ReadReq_miss_latency::total 114256702500                       # number of ReadReq miss cycles
system.cpu.dcache.ReadReq_accesses::.cpu.data     92823219                       # number of ReadReq accesses(hits+misses)
system.cpu.dcache.ReadReq_accesses::total     92823219                       # number of ReadReq accesses(hits+misses)
system.cpu.dcache.ReadReq_miss_rate::.cpu.data     0.021145                       # miss rate for ReadReq accesses
system.cpu.dcache.ReadReq_miss_rate::total     0.021145                       # miss rate for ReadReq accesses
system.cpu.dcache.ReadReq_avg_miss_latency::.cpu.data 58212.708477                       # average ReadReq miss latency
system.cpu.dcache.ReadReq_avg_miss_latency::total 58212.708477                       # average ReadReq miss latency
system.cpu.dcache.ReadReq_mshr_hits::.cpu.data       114886                       # number of ReadReq MSHR hits
system.cpu.dcache.ReadReq_mshr_hits::total       114886                       # number of ReadReq MSHR hits
system.cpu.dcache.ReadReq_mshr_misses::.cpu.data      1847859                       # number of ReadReq MSHR misses
system.cpu.dcache.ReadReq_mshr_misses::total      1847859                       # number of ReadReq MSHR misses
system.cpu.dcache.ReadReq_mshr_uncacheable::.cpu.data          283                       # number of ReadReq MSHR uncacheable
system.cpu.dcache.ReadReq_mshr_uncacheable::total          283                       # number of ReadReq MSHR uncacheable
system.cpu.dcache.ReadReq_mshr_miss_latency::.cpu.data 105737640500                       # number of ReadReq MSHR miss cycles
system.cpu.dcache.ReadReq_mshr_miss_latency::total 105737640500                       # number of ReadReq MSHR miss cycles
system.cpu.dcache.ReadReq_mshr_uncacheable_latency::.cpu.data     49652500                       # number of ReadReq MSHR uncacheable cycles
system.cpu.dcache.ReadReq_mshr_uncacheable_latency::total     49652500                       # number of ReadReq MSHR uncacheable cycles
system.cpu.dcache.ReadReq_mshr_miss_rate::.cpu.data     0.019907                       # mshr miss rate for ReadReq accesses
system.cpu.dcache.ReadReq_mshr_miss_rate::total     0.019907                       # mshr miss rate for ReadReq accesses
system.cpu.dcache.ReadReq_avg_mshr_miss_latency::.cpu.data 57221.703875                       # average ReadReq mshr miss latency
system.cpu.dcache.ReadReq_avg_mshr_miss_latency::total 57221.703875                       # average ReadReq mshr miss latency
system.cpu.dcache.ReadReq_avg_mshr_uncacheable_latency::.cpu.data 175450.530035                       # average ReadReq mshr uncacheable latency
system.cpu.dcache.ReadReq_avg_mshr_uncacheable_latency::total 175450.530035                       # average ReadReq mshr uncacheable latency
system.cpu.dcache.WriteReq_hits::.cpu.data     40554860                       # number of WriteReq hits
system.cpu.dcache.WriteReq_hits::total       40554860                       # number of WriteReq hits
system.cpu.dcache.WriteReq_misses::.cpu.data      2485652                       # number of WriteReq misses
system.cpu.dcache.WriteReq_misses::total      2485652                       # number of WriteReq misses
system.cpu.dcache.WriteReq_miss_latency::.cpu.data 154288414500                       # number of WriteReq miss cycles
system.cpu.dcache.WriteReq_miss_latency::total 154288414500                       # number of WriteReq miss cycles
system.cpu.dcache.WriteReq_accesses::.cpu.data     43040512                       # number of WriteReq accesses(hits+misses)
system.cpu.dcache.WriteReq_accesses::total     43040512                       # number of WriteReq accesses(hits+misses)
system.cpu.dcache.WriteReq_miss_rate::.cpu.data     0.057751                       # miss rate for WriteReq accesses
system.cpu.dcache.WriteReq_miss_rate::total     0.057751                       # miss rate for WriteReq accesses
system.cpu.dcache.WriteReq_avg_miss_latency::.cpu.data 62071.607168                       # average WriteReq miss latency
system.cpu.dcache.WriteReq_avg_miss_latency::total 62071.607168                       # average WriteReq miss latency
system.cpu.dcache.WriteReq_mshr_hits::.cpu.data      1120784                       # number of WriteReq MSHR hits
system.cpu.dcache.WriteReq_mshr_hits::total      1120784                       # number of WriteReq MSHR hits
system.cpu.dcache.WriteReq_mshr_misses::.cpu.data      1364868                       # number of WriteReq MSHR misses
system.cpu.dcache.WriteReq_mshr_misses::total      1364868                       # number of WriteReq MSHR misses
system.cpu.dcache.WriteReq_mshr_uncacheable::.cpu.data          941                       # number of WriteReq MSHR uncacheable
system.cpu.dcache.WriteReq_mshr_uncacheable::total          941                       # number of WriteReq MSHR uncacheable
system.cpu.dcache.WriteReq_mshr_miss_latency::.cpu.data  82439709000                       # number of WriteReq MSHR miss cycles
system.cpu.dcache.WriteReq_mshr_miss_latency::total  82439709000                       # number of WriteReq MSHR miss cycles
system.cpu.dcache.WriteReq_mshr_miss_rate::.cpu.data     0.031711                       # mshr miss rate for WriteReq accesses
system.cpu.dcache.WriteReq_mshr_miss_rate::total     0.031711                       # mshr miss rate for WriteReq accesses
system.cpu.dcache.WriteReq_avg_mshr_miss_latency::.cpu.data 60401.232207                       # average WriteReq mshr miss latency
system.cpu.dcache.WriteReq_avg_mshr_miss_latency::total 60401.232207                       # average WriteReq mshr miss latency
system.cpu.dcache.LoadLockedReq_hits::.cpu.data        80565                       # number of LoadLockedReq hits
system.cpu.dcache.LoadLockedReq_hits::total        80565                       # number of LoadLockedReq hits
system.cpu.dcache.LoadLockedReq_misses::.cpu.data         3522                       # number of LoadLockedReq misses
system.cpu.dcache.LoadLockedReq_misses::total         3522                       # number of LoadLockedReq misses
system.cpu.dcache.LoadLockedReq_miss_latency::.cpu.data    267318000                       # number of LoadLockedReq miss cycles
system.cpu.dcache.LoadLockedReq_miss_latency::total    267318000                       # number of LoadLockedReq miss cycles
system.cpu.dcache.LoadLockedReq_accesses::.cpu.data        84087                       # number of LoadLockedReq accesses(hits+misses)
system.cpu.dcache.LoadLockedReq_accesses::total        84087                       # number of LoadLockedReq accesses(hits+misses)
system.cpu.dcache.LoadLockedReq_miss_rate::.cpu.data     0.041885                       # miss rate for LoadLockedReq accesses
system.cpu.dcache.LoadLockedReq_miss_rate::total     0.041885                       # miss rate for LoadLockedReq accesses
system.cpu.dcache.LoadLockedReq_avg_miss_latency::.cpu.data 75899.488927                       # average LoadLockedReq miss latency
system.cpu.dcache.LoadLockedReq_avg_miss_latency::total 75899.488927                       # average LoadLockedReq miss latency
system.cpu.dcache.LoadLockedReq_mshr_hits::.cpu.data            1                       # number of LoadLockedReq MSHR hits
system.cpu.dcache.LoadLockedReq_mshr_hits::total            1                       # number of LoadLockedReq MSHR hits
system.cpu.dcache.LoadLockedReq_mshr_misses::.cpu.data         3521                       # number of LoadLockedReq MSHR misses
system.cpu.dcache.LoadLockedReq_mshr_misses::total         3521                       # number of LoadLockedReq MSHR misses
system.cpu.dcache.LoadLockedReq_mshr_miss_latency::.cpu.data    263726000                       # number of LoadLockedReq MSHR miss cycles
system.cpu.dcache.LoadLockedReq_mshr_miss_latency::total    263726000                       # number of LoadLockedReq MSHR miss cycles
system.cpu.dcache.LoadLockedReq_mshr_miss_rate::.cpu.data     0.041873                       # mshr miss rate for LoadLockedReq accesses
system.cpu.dcache.LoadLockedReq_mshr_miss_rate::total     0.041873                       # mshr miss rate for LoadLockedReq accesses
system.cpu.dcache.LoadLockedReq_avg_mshr_miss_latency::.cpu.data 74900.880432                       # average LoadLockedReq mshr miss latency
system.cpu.dcache.LoadLockedReq_avg_mshr_miss_latency::total 74900.880432                       # average LoadLockedReq mshr miss latency
system.cpu.dcache.StoreCondReq_hits::.cpu.data        83965                       # number of StoreCondReq hits
system.cpu.dcache.StoreCondReq_hits::total        83965                       # number of StoreCondReq hits
system.cpu.dcache.StoreCondReq_accesses::.cpu.data        83965                       # number of StoreCondReq accesses(hits+misses)
system.cpu.dcache.StoreCondReq_accesses::total        83965                       # number of StoreCondReq accesses(hits+misses)
system.cpu.dcache.tags.pwrStateResidencyTicks::UNDEFINED 542593994500                       # Cumulative time (in ticks) in various power states
system.cpu.dcache.tags.tagsinuse                 1024                       # Cycle average of tags in use
system.cpu.dcache.tags.total_refs           135060340                       # Total number of references to valid blocks.
system.cpu.dcache.tags.sampled_refs           3217271                       # Sample count of references to valid blocks.
system.cpu.dcache.tags.avg_refs             41.979783                       # Average number of references to valid blocks.
system.cpu.dcache.tags.warmup_cycle                 0                       # Cycle when the warmup percentage was hit.
system.cpu.dcache.tags.occ_blocks::.cpu.data         1024                       # Average occupied blocks per requestor
system.cpu.dcache.tags.occ_percent::.cpu.data            1                       # Average percentage of cache occupancy
system.cpu.dcache.tags.occ_percent::total            1                       # Average percentage of cache occupancy
system.cpu.dcache.tags.occ_task_id_blocks::1024         1024                       # Occupied blocks per task id
system.cpu.dcache.tags.age_task_id_blocks_1024::0           44                       # Occupied blocks per task id
system.cpu.dcache.tags.age_task_id_blocks_1024::1          351                       # Occupied blocks per task id
system.cpu.dcache.tags.age_task_id_blocks_1024::2          629                       # Occupied blocks per task id
system.cpu.dcache.tags.occ_task_id_percent::1024            1                       # Percentage of cache occupancy per task id
system.cpu.dcache.tags.tag_accesses         275279813                       # Number of tag accesses
system.cpu.dcache.tags.data_accesses        275279813                       # Number of data accesses

---------- End Simulation Statistics   ----------
