
---------- Begin Simulation Statistics ----------
final_tick                               2542201599500                       # Number of ticks from beginning of simulation (restored from checkpoints and never reset)
host_inst_rate                                 222074                       # Simulator instruction rate (inst/s)
host_mem_usage                                 740736                       # Number of bytes of host memory used
host_op_rate                                   222072                       # Simulator op (including micro ops) rate (op/s)
host_seconds                                    18.90                       # Real time elapsed on the host
host_tick_rate                              644933914                       # Simulator tick rate (ticks/s)
sim_freq                                 1000000000000                       # Frequency of simulated ticks
sim_insts                                     4198027                       # Number of instructions simulated
sim_ops                                       4198027                       # Number of ops (including micro ops) simulated
sim_seconds                                  0.012192                       # Number of seconds simulated
sim_ticks                                 12191754500                       # Number of ticks simulated
system.cpu.branchPred.BTBCorrect                    0                       # Number of correct BTB predictions (this stat may not work properly.
system.cpu.branchPred.BTBHitPct             45.493711                       # BTB Hit Percentage
system.cpu.branchPred.BTBHits                  361993                       # Number of BTB hits
system.cpu.branchPred.BTBLookups               795699                       # Number of BTB lookups
system.cpu.branchPred.RASInCorrect               2758                       # Number of incorrect RAS predictions.
system.cpu.branchPred.condIncorrect            122692                       # Number of conditional branches incorrect
system.cpu.branchPred.condPredicted            878682                       # Number of conditional branches predicted
system.cpu.branchPred.indirectHits              46171                       # Number of indirect target hits.
system.cpu.branchPred.indirectLookups          287514                       # Number of indirect predictor lookups.
system.cpu.branchPred.indirectMisses           241343                       # Number of indirect misses.
system.cpu.branchPred.lookups                 1093722                       # Number of BP lookups
system.cpu.branchPred.usedRAS                   73516                       # Number of times the RAS was used to get a target.
system.cpu.branchPredindirectMispredicted        31008                       # Number of mispredicted indirect branches.
system.cpu.committedInsts                     4198027                       # Number of instructions committed
system.cpu.committedOps                       4198027                       # Number of ops (including micro ops) committed
system.cpu.cpi                               5.805213                       # CPI: cycles per instruction
system.cpu.discardedOps                        320333                       # Number of ops (including micro ops) which were discarded before commit
system.cpu.dtb.data_accesses                   624211                       # DTB accesses
system.cpu.dtb.data_acv                           129                       # DTB access violations
system.cpu.dtb.data_hits                      1484700                       # DTB hits
system.cpu.dtb.data_misses                       9294                       # DTB misses
system.cpu.dtb.fetch_accesses                       0                       # ITB accesses
system.cpu.dtb.fetch_acv                            0                       # ITB acv
system.cpu.dtb.fetch_hits                           0                       # ITB hits
system.cpu.dtb.fetch_misses                         0                       # ITB misses
system.cpu.dtb.read_accesses                   421566                       # DTB read accesses
system.cpu.dtb.read_acv                            43                       # DTB read access violations
system.cpu.dtb.read_hits                       879662                       # DTB read hits
system.cpu.dtb.read_misses                       8218                       # DTB read misses
system.cpu.dtb.write_accesses                  202645                       # DTB write accesses
system.cpu.dtb.write_acv                           86                       # DTB write access violations
system.cpu.dtb.write_hits                      605038                       # DTB write hits
system.cpu.dtb.write_misses                      1076                       # DTB write misses
system.cpu.fetch2.amo_instructions                  0                       # Number of memory atomic instructions successfully decoded
system.cpu.fetch2.fp_instructions               18165                       # Number of floating point instructions successfully decoded
system.cpu.fetch2.int_instructions            3737741                       # Number of integer instructions successfully decoded
system.cpu.fetch2.load_instructions           1191377                       # Number of memory load instructions successfully decoded
system.cpu.fetch2.store_instructions           693914                       # Number of memory store instructions successfully decoded
system.cpu.fetch2.vec_instructions                  0                       # Number of SIMD instructions successfully decoded
system.cpu.idleCycles                        17108057                       # Total number of cycles that the object has spent stopped
system.cpu.ipc                               0.172259                       # IPC: instructions per cycle
system.cpu.itb.data_accesses                        0                       # DTB accesses
system.cpu.itb.data_acv                             0                       # DTB access violations
system.cpu.itb.data_hits                            0                       # DTB hits
system.cpu.itb.data_misses                          0                       # DTB misses
system.cpu.itb.fetch_accesses                 1004413                       # ITB accesses
system.cpu.itb.fetch_acv                          662                       # ITB acv
system.cpu.itb.fetch_hits                      996156                       # ITB hits
system.cpu.itb.fetch_misses                      8257                       # ITB misses
system.cpu.itb.read_accesses                        0                       # DTB read accesses
system.cpu.itb.read_acv                             0                       # DTB read access violations
system.cpu.itb.read_hits                            0                       # DTB read hits
system.cpu.itb.read_misses                          0                       # DTB read misses
system.cpu.itb.write_accesses                       0                       # DTB write accesses
system.cpu.itb.write_acv                            0                       # DTB write access violations
system.cpu.itb.write_hits                           0                       # DTB write hits
system.cpu.itb.write_misses                         0                       # DTB write misses
system.cpu.kern.callpal::swpctx                   574      9.41%      9.41% # number of callpals executed
system.cpu.kern.callpal::tbi                       25      0.41%      9.82% # number of callpals executed
system.cpu.kern.callpal::swpipl                  4231     69.39%     79.22% # number of callpals executed
system.cpu.kern.callpal::rdps                      50      0.82%     80.04% # number of callpals executed
system.cpu.kern.callpal::wrusp                      4      0.07%     80.10% # number of callpals executed
system.cpu.kern.callpal::rdusp                      3      0.05%     80.15% # number of callpals executed
system.cpu.kern.callpal::rti                      897     14.71%     94.87% # number of callpals executed
system.cpu.kern.callpal::callsys                  235      3.85%     98.72% # number of callpals executed
system.cpu.kern.callpal::imb                       78      1.28%    100.00% # number of callpals executed
system.cpu.kern.callpal::total                   6097                       # number of callpals executed
system.cpu.kern.inst.arm                            0                       # number of arm instructions executed
system.cpu.kern.inst.hwrei                      14441                       # number of hwrei instructions executed
system.cpu.kern.inst.quiesce                        9                       # number of quiesce instructions executed
system.cpu.kern.ipl_count::0                     2434     47.30%     47.30% # number of times we switched to this ipl
system.cpu.kern.ipl_count::21                       5      0.10%     47.40% # number of times we switched to this ipl
system.cpu.kern.ipl_count::22                      13      0.25%     47.65% # number of times we switched to this ipl
system.cpu.kern.ipl_count::31                    2694     52.35%    100.00% # number of times we switched to this ipl
system.cpu.kern.ipl_count::total                 5146                       # number of times we switched to this ipl
system.cpu.kern.ipl_good::0                      2421     49.81%     49.81% # number of times we switched to this ipl from a different ipl
system.cpu.kern.ipl_good::21                        5      0.10%     49.92% # number of times we switched to this ipl from a different ipl
system.cpu.kern.ipl_good::22                       13      0.27%     50.19% # number of times we switched to this ipl from a different ipl
system.cpu.kern.ipl_good::31                     2421     49.81%    100.00% # number of times we switched to this ipl from a different ipl
system.cpu.kern.ipl_good::total                  4860                       # number of times we switched to this ipl from a different ipl
system.cpu.kern.ipl_ticks::0              11256307000     92.29%     92.29% # number of cycles we spent at this ipl
system.cpu.kern.ipl_ticks::21                 9426500      0.08%     92.37% # number of cycles we spent at this ipl
system.cpu.kern.ipl_ticks::22                19615000      0.16%     92.53% # number of cycles we spent at this ipl
system.cpu.kern.ipl_ticks::31               910735500      7.47%    100.00% # number of cycles we spent at this ipl
system.cpu.kern.ipl_ticks::total          12196084000                       # number of cycles we spent at this ipl
system.cpu.kern.ipl_used::0                  0.994659                       # fraction of swpipl calls that actually changed the ipl
system.cpu.kern.ipl_used::21                        1                       # fraction of swpipl calls that actually changed the ipl
system.cpu.kern.ipl_used::22                        1                       # fraction of swpipl calls that actually changed the ipl
system.cpu.kern.ipl_used::31                 0.898664                       # fraction of swpipl calls that actually changed the ipl
system.cpu.kern.ipl_used::total              0.944423                       # fraction of swpipl calls that actually changed the ipl
system.cpu.kern.mode_good::kernel                 873                      
system.cpu.kern.mode_good::user                   873                      
system.cpu.kern.mode_good::idle                     0                      
system.cpu.kern.mode_switch::kernel              1471                       # number of protection mode switches
system.cpu.kern.mode_switch::user                 873                       # number of protection mode switches
system.cpu.kern.mode_switch::idle                   0                       # number of protection mode switches
system.cpu.kern.mode_switch_good::kernel     0.593474                       # fraction of useful protection mode switches
system.cpu.kern.mode_switch_good::user              1                       # fraction of useful protection mode switches
system.cpu.kern.mode_switch_good::idle            nan                       # fraction of useful protection mode switches
system.cpu.kern.mode_switch_good::total      0.744881                       # fraction of useful protection mode switches
system.cpu.kern.mode_ticks::kernel         8175765000     67.04%     67.04% # number of ticks spent at the given mode
system.cpu.kern.mode_ticks::user           4020319000     32.96%    100.00% # number of ticks spent at the given mode
system.cpu.kern.mode_ticks::idle                    0      0.00%    100.00% # number of ticks spent at the given mode
system.cpu.kern.swap_context                      574                       # number of times the context was actually changed
system.cpu.numCycles                         24370439                       # number of cpu cycles simulated
system.cpu.numFetchSuspends                         9                       # Number of times Execute suspended instruction fetching
system.cpu.numWorkItemsCompleted                    0                       # number of work items this cpu completed
system.cpu.numWorkItemsStarted                      0                       # number of work items this cpu started
system.cpu.op_class_0::No_OpClass               85431      2.04%      2.04% # Class of committed instruction
system.cpu.op_class_0::IntAlu                 2542534     60.56%     62.60% # Class of committed instruction
system.cpu.op_class_0::IntMult                   3684      0.09%     62.69% # Class of committed instruction
system.cpu.op_class_0::IntDiv                       0      0.00%     62.69% # Class of committed instruction
system.cpu.op_class_0::FloatAdd                  8286      0.20%     62.89% # Class of committed instruction
system.cpu.op_class_0::FloatCmp                     0      0.00%     62.89% # Class of committed instruction
system.cpu.op_class_0::FloatCvt                     0      0.00%     62.89% # Class of committed instruction
system.cpu.op_class_0::FloatMult                    0      0.00%     62.89% # Class of committed instruction
system.cpu.op_class_0::FloatMultAcc                 0      0.00%     62.89% # Class of committed instruction
system.cpu.op_class_0::FloatDiv                  1593      0.04%     62.92% # Class of committed instruction
system.cpu.op_class_0::FloatMisc                    0      0.00%     62.92% # Class of committed instruction
system.cpu.op_class_0::FloatSqrt                    0      0.00%     62.92% # Class of committed instruction
system.cpu.op_class_0::SimdAdd                      0      0.00%     62.92% # Class of committed instruction
system.cpu.op_class_0::SimdAddAcc                   0      0.00%     62.92% # Class of committed instruction
system.cpu.op_class_0::SimdAlu                      0      0.00%     62.92% # Class of committed instruction
system.cpu.op_class_0::SimdCmp                      0      0.00%     62.92% # Class of committed instruction
system.cpu.op_class_0::SimdCvt                      0      0.00%     62.92% # Class of committed instruction
system.cpu.op_class_0::SimdMisc                     0      0.00%     62.92% # Class of committed instruction
system.cpu.op_class_0::SimdMult                     0      0.00%     62.92% # Class of committed instruction
system.cpu.op_class_0::SimdMultAcc                  0      0.00%     62.92% # Class of committed instruction
system.cpu.op_class_0::SimdShift                    0      0.00%     62.92% # Class of committed instruction
system.cpu.op_class_0::SimdShiftAcc                 0      0.00%     62.92% # Class of committed instruction
system.cpu.op_class_0::SimdDiv                      0      0.00%     62.92% # Class of committed instruction
system.cpu.op_class_0::SimdSqrt                     0      0.00%     62.92% # Class of committed instruction
system.cpu.op_class_0::SimdFloatAdd                 0      0.00%     62.92% # Class of committed instruction
system.cpu.op_class_0::SimdFloatAlu                 0      0.00%     62.92% # Class of committed instruction
system.cpu.op_class_0::SimdFloatCmp                 0      0.00%     62.92% # Class of committed instruction
system.cpu.op_class_0::SimdFloatCvt                 0      0.00%     62.92% # Class of committed instruction
system.cpu.op_class_0::SimdFloatDiv                 0      0.00%     62.92% # Class of committed instruction
system.cpu.op_class_0::SimdFloatMisc                0      0.00%     62.92% # Class of committed instruction
system.cpu.op_class_0::SimdFloatMult                0      0.00%     62.92% # Class of committed instruction
system.cpu.op_class_0::SimdFloatMultAcc             0      0.00%     62.92% # Class of committed instruction
system.cpu.op_class_0::SimdFloatSqrt                0      0.00%     62.92% # Class of committed instruction
system.cpu.op_class_0::SimdReduceAdd                0      0.00%     62.92% # Class of committed instruction
system.cpu.op_class_0::SimdReduceAlu                0      0.00%     62.92% # Class of committed instruction
system.cpu.op_class_0::SimdReduceCmp                0      0.00%     62.92% # Class of committed instruction
system.cpu.op_class_0::SimdFloatReduceAdd            0      0.00%     62.92% # Class of committed instruction
system.cpu.op_class_0::SimdFloatReduceCmp            0      0.00%     62.92% # Class of committed instruction
system.cpu.op_class_0::SimdAes                      0      0.00%     62.92% # Class of committed instruction
system.cpu.op_class_0::SimdAesMix                   0      0.00%     62.92% # Class of committed instruction
system.cpu.op_class_0::SimdSha1Hash                 0      0.00%     62.92% # Class of committed instruction
system.cpu.op_class_0::SimdSha1Hash2                0      0.00%     62.92% # Class of committed instruction
system.cpu.op_class_0::SimdSha256Hash               0      0.00%     62.92% # Class of committed instruction
system.cpu.op_class_0::SimdSha256Hash2              0      0.00%     62.92% # Class of committed instruction
system.cpu.op_class_0::SimdShaSigma2                0      0.00%     62.92% # Class of committed instruction
system.cpu.op_class_0::SimdShaSigma3                0      0.00%     62.92% # Class of committed instruction
system.cpu.op_class_0::SimdPredAlu                  0      0.00%     62.92% # Class of committed instruction
system.cpu.op_class_0::MemRead                 839846     20.01%     82.93% # Class of committed instruction
system.cpu.op_class_0::MemWrite                592949     14.12%     97.05% # Class of committed instruction
system.cpu.op_class_0::FloatMemRead              9988      0.24%     97.29% # Class of committed instruction
system.cpu.op_class_0::FloatMemWrite             8788      0.21%     97.50% # Class of committed instruction
system.cpu.op_class_0::IprAccess               104928      2.50%    100.00% # Class of committed instruction
system.cpu.op_class_0::InstPrefetch                 0      0.00%    100.00% # Class of committed instruction
system.cpu.op_class_0::total                  4198027                       # Class of committed instruction
system.cpu.quiesceCycles                        13070                       # Total number of cycles that CPU has spent quiesced or waiting for an interrupt
system.cpu.tickCycles                         7262382                       # Number of cycles that the object actually ticked
system.disk0.dma_read_bytes                         0                       # Number of bytes transfered via DMA reads (not PRD).
system.disk0.dma_read_full_pages                    0                       # Number of full page size DMA reads (not PRD).
system.disk0.dma_read_txs                           0                       # Number of DMA read transactions (not PRD).
system.disk0.dma_write_bytes                    12288                       # Number of bytes transfered via DMA writes.
system.disk0.dma_write_full_pages                   0                       # Number of full page size DMA writes.
system.disk0.dma_write_txs                          3                       # Number of DMA write transactions.
system.disk2.dma_read_bytes                         0                       # Number of bytes transfered via DMA reads (not PRD).
system.disk2.dma_read_full_pages                    0                       # Number of full page size DMA reads (not PRD).
system.disk2.dma_read_txs                           0                       # Number of DMA read transactions (not PRD).
system.disk2.dma_write_bytes                        0                       # Number of bytes transfered via DMA writes.
system.disk2.dma_write_full_pages                   0                       # Number of full page size DMA writes.
system.disk2.dma_write_txs                          0                       # Number of DMA write transactions.
system.membus.snoop_filter.hit_multi_requests          435                       # Number of requests hitting in the snoop filter with multiple (>1) holders of the requested data.
system.membus.snoop_filter.hit_multi_snoops            0                       # Number of snoops hitting in the snoop filter with multiple (>1) holders of the requested data.
system.membus.snoop_filter.hit_single_requests       158494                       # Number of requests hitting in the snoop filter with a single holder of the requested data.
system.membus.snoop_filter.hit_single_snoops            0                       # Number of snoops hitting in the snoop filter with a single holder of the requested data.
system.membus.snoop_filter.tot_requests        318592                       # Total number of requests made to the snoop filter.
system.membus.snoop_filter.tot_snoops               0                       # Total number of snoops made to the snoop filter.
system.tsunami.ethernet.coalescedRxDesc           nan                       # average number of RxDesc's coalesced into each post
system.tsunami.ethernet.coalescedRxIdle           nan                       # average number of RxIdle's coalesced into each post
system.tsunami.ethernet.coalescedRxOk             nan                       # average number of RxOk's coalesced into each post
system.tsunami.ethernet.coalescedRxOrn            nan                       # average number of RxOrn's coalesced into each post
system.tsunami.ethernet.coalescedSwi              nan                       # average number of Swi's coalesced into each post
system.tsunami.ethernet.coalescedTotal            nan                       # average number of interrupts coalesced into each post
system.tsunami.ethernet.coalescedTxDesc           nan                       # average number of TxDesc's coalesced into each post
system.tsunami.ethernet.coalescedTxIdle           nan                       # average number of TxIdle's coalesced into each post
system.tsunami.ethernet.coalescedTxOk             nan                       # average number of TxOk's coalesced into each post
system.tsunami.ethernet.descDMAReads                0                       # Number of descriptors the device read w/ DMA
system.tsunami.ethernet.descDMAWrites               0                       # Number of descriptors the device wrote w/ DMA
system.tsunami.ethernet.descDmaReadBytes            0                       # number of descriptor bytes read w/ DMA
system.tsunami.ethernet.descDmaWriteBytes            0                       # number of descriptor bytes write w/ DMA
system.tsunami.ethernet.droppedPackets              0                       # number of packets dropped
system.tsunami.ethernet.postedInterrupts            0                       # number of posts to CPU
system.tsunami.ethernet.postedRxDesc                0                       # number of RxDesc interrupts posted to CPU
system.tsunami.ethernet.postedRxIdle                0                       # number of rxIdle interrupts posted to CPU
system.tsunami.ethernet.postedRxOk                  0                       # number of RxOk interrupts posted to CPU
system.tsunami.ethernet.postedRxOrn                 0                       # number of RxOrn posted to CPU
system.tsunami.ethernet.postedSwi                   0                       # number of software interrupts posted to CPU
system.tsunami.ethernet.postedTxDesc                0                       # number of TxDesc interrupts posted to CPU
system.tsunami.ethernet.postedTxIdle                0                       # number of TxIdle interrupts posted to CPU
system.tsunami.ethernet.postedTxOk                  0                       # number of TxOk interrupts posted to CPU
system.tsunami.ethernet.totalRxDesc                 0                       # total number of RxDesc written to ISR
system.tsunami.ethernet.totalRxIdle                 0                       # total number of RxIdle written to ISR
system.tsunami.ethernet.totalRxOk                   0                       # total number of RxOk written to ISR
system.tsunami.ethernet.totalRxOrn                  0                       # total number of RxOrn written to ISR
system.tsunami.ethernet.totalSwi                    0                       # total number of Swi written to ISR
system.tsunami.ethernet.totalTxDesc                 0                       # total number of TxDesc written to ISR
system.tsunami.ethernet.totalTxIdle                 0                       # total number of TxIdle written to ISR
system.tsunami.ethernet.totalTxOk                   0                       # total number of TxOk written to ISR
system.bridge.pwrStateResidencyTicks::UNDEFINED 2542201599500                       # Cumulative time (in ticks) in various power states
system.voltage_domain.voltage                       1                       # Voltage in Volts
system.iocache.pwrStateResidencyTicks::UNDEFINED 2542201599500                       # Cumulative time (in ticks) in various power states
system.iocache.demand_misses::.tsunami.ide          195                       # number of demand (read+write) misses
system.iocache.demand_misses::total               195                       # number of demand (read+write) misses
system.iocache.overall_misses::.tsunami.ide          195                       # number of overall misses
system.iocache.overall_misses::total              195                       # number of overall misses
system.iocache.demand_miss_latency::.tsunami.ide     22760456                       # number of demand (read+write) miss cycles
system.iocache.demand_miss_latency::total     22760456                       # number of demand (read+write) miss cycles
system.iocache.overall_miss_latency::.tsunami.ide     22760456                       # number of overall miss cycles
system.iocache.overall_miss_latency::total     22760456                       # number of overall miss cycles
system.iocache.demand_accesses::.tsunami.ide          195                       # number of demand (read+write) accesses
system.iocache.demand_accesses::total             195                       # number of demand (read+write) accesses
system.iocache.overall_accesses::.tsunami.ide          195                       # number of overall (read+write) accesses
system.iocache.overall_accesses::total            195                       # number of overall (read+write) accesses
system.iocache.demand_miss_rate::.tsunami.ide            1                       # miss rate for demand accesses
system.iocache.demand_miss_rate::total              1                       # miss rate for demand accesses
system.iocache.overall_miss_rate::.tsunami.ide            1                       # miss rate for overall accesses
system.iocache.overall_miss_rate::total             1                       # miss rate for overall accesses
system.iocache.demand_avg_miss_latency::.tsunami.ide 116720.287179                       # average overall miss latency
system.iocache.demand_avg_miss_latency::total 116720.287179                       # average overall miss latency
system.iocache.overall_avg_miss_latency::.tsunami.ide 116720.287179                       # average overall miss latency
system.iocache.overall_avg_miss_latency::total 116720.287179                       # average overall miss latency
system.iocache.blocked_cycles::no_mshrs             0                       # number of cycles access was blocked
system.iocache.blocked_cycles::no_targets            0                       # number of cycles access was blocked
system.iocache.blocked::no_mshrs                    0                       # number of cycles access was blocked
system.iocache.blocked::no_targets                  0                       # number of cycles access was blocked
system.iocache.avg_blocked_cycles::no_mshrs          nan                       # average number of cycles each access was blocked
system.iocache.avg_blocked_cycles::no_targets          nan                       # average number of cycles each access was blocked
system.iocache.writebacks::.writebacks            176                       # number of writebacks
system.iocache.writebacks::total                  176                       # number of writebacks
system.iocache.demand_mshr_misses::.tsunami.ide          195                       # number of demand (read+write) MSHR misses
system.iocache.demand_mshr_misses::total          195                       # number of demand (read+write) MSHR misses
system.iocache.overall_mshr_misses::.tsunami.ide          195                       # number of overall MSHR misses
system.iocache.overall_mshr_misses::total          195                       # number of overall MSHR misses
system.iocache.demand_mshr_miss_latency::.tsunami.ide     12999481                       # number of demand (read+write) MSHR miss cycles
system.iocache.demand_mshr_miss_latency::total     12999481                       # number of demand (read+write) MSHR miss cycles
system.iocache.overall_mshr_miss_latency::.tsunami.ide     12999481                       # number of overall MSHR miss cycles
system.iocache.overall_mshr_miss_latency::total     12999481                       # number of overall MSHR miss cycles
system.iocache.demand_mshr_miss_rate::.tsunami.ide            1                       # mshr miss rate for demand accesses
system.iocache.demand_mshr_miss_rate::total            1                       # mshr miss rate for demand accesses
system.iocache.overall_mshr_miss_rate::.tsunami.ide            1                       # mshr miss rate for overall accesses
system.iocache.overall_mshr_miss_rate::total            1                       # mshr miss rate for overall accesses
system.iocache.demand_avg_mshr_miss_latency::.tsunami.ide 66664.005128                       # average overall mshr miss latency
system.iocache.demand_avg_mshr_miss_latency::total 66664.005128                       # average overall mshr miss latency
system.iocache.overall_avg_mshr_miss_latency::.tsunami.ide 66664.005128                       # average overall mshr miss latency
system.iocache.overall_avg_mshr_miss_latency::total 66664.005128                       # average overall mshr miss latency
system.iocache.replacements                       179                       # number of replacements
system.iocache.ReadReq_misses::.tsunami.ide            3                       # number of ReadReq misses
system.iocache.ReadReq_misses::total                3                       # number of ReadReq misses
system.iocache.ReadReq_miss_latency::.tsunami.ide       349497                       # number of ReadReq miss cycles
system.iocache.ReadReq_miss_latency::total       349497                       # number of ReadReq miss cycles
system.iocache.ReadReq_accesses::.tsunami.ide            3                       # number of ReadReq accesses(hits+misses)
system.iocache.ReadReq_accesses::total              3                       # number of ReadReq accesses(hits+misses)
system.iocache.ReadReq_miss_rate::.tsunami.ide            1                       # miss rate for ReadReq accesses
system.iocache.ReadReq_miss_rate::total             1                       # miss rate for ReadReq accesses
system.iocache.ReadReq_avg_miss_latency::.tsunami.ide       116499                       # average ReadReq miss latency
system.iocache.ReadReq_avg_miss_latency::total       116499                       # average ReadReq miss latency
system.iocache.ReadReq_mshr_misses::.tsunami.ide            3                       # number of ReadReq MSHR misses
system.iocache.ReadReq_mshr_misses::total            3                       # number of ReadReq MSHR misses
system.iocache.ReadReq_mshr_miss_latency::.tsunami.ide       199497                       # number of ReadReq MSHR miss cycles
system.iocache.ReadReq_mshr_miss_latency::total       199497                       # number of ReadReq MSHR miss cycles
system.iocache.ReadReq_mshr_miss_rate::.tsunami.ide            1                       # mshr miss rate for ReadReq accesses
system.iocache.ReadReq_mshr_miss_rate::total            1                       # mshr miss rate for ReadReq accesses
system.iocache.ReadReq_avg_mshr_miss_latency::.tsunami.ide        66499                       # average ReadReq mshr miss latency
system.iocache.ReadReq_avg_mshr_miss_latency::total        66499                       # average ReadReq mshr miss latency
system.iocache.WriteLineReq_misses::.tsunami.ide          192                       # number of WriteLineReq misses
system.iocache.WriteLineReq_misses::total          192                       # number of WriteLineReq misses
system.iocache.WriteLineReq_miss_latency::.tsunami.ide     22410959                       # number of WriteLineReq miss cycles
system.iocache.WriteLineReq_miss_latency::total     22410959                       # number of WriteLineReq miss cycles
system.iocache.WriteLineReq_accesses::.tsunami.ide          192                       # number of WriteLineReq accesses(hits+misses)
system.iocache.WriteLineReq_accesses::total          192                       # number of WriteLineReq accesses(hits+misses)
system.iocache.WriteLineReq_miss_rate::.tsunami.ide            1                       # miss rate for WriteLineReq accesses
system.iocache.WriteLineReq_miss_rate::total            1                       # miss rate for WriteLineReq accesses
system.iocache.WriteLineReq_avg_miss_latency::.tsunami.ide 116723.744792                       # average WriteLineReq miss latency
system.iocache.WriteLineReq_avg_miss_latency::total 116723.744792                       # average WriteLineReq miss latency
system.iocache.WriteLineReq_mshr_misses::.tsunami.ide          192                       # number of WriteLineReq MSHR misses
system.iocache.WriteLineReq_mshr_misses::total          192                       # number of WriteLineReq MSHR misses
system.iocache.WriteLineReq_mshr_miss_latency::.tsunami.ide     12799984                       # number of WriteLineReq MSHR miss cycles
system.iocache.WriteLineReq_mshr_miss_latency::total     12799984                       # number of WriteLineReq MSHR miss cycles
system.iocache.WriteLineReq_mshr_miss_rate::.tsunami.ide            1                       # mshr miss rate for WriteLineReq accesses
system.iocache.WriteLineReq_mshr_miss_rate::total            1                       # mshr miss rate for WriteLineReq accesses
system.iocache.WriteLineReq_avg_mshr_miss_latency::.tsunami.ide 66666.583333                       # average WriteLineReq mshr miss latency
system.iocache.WriteLineReq_avg_mshr_miss_latency::total 66666.583333                       # average WriteLineReq mshr miss latency
system.iocache.tags.pwrStateResidencyTicks::UNDEFINED 2542201599500                       # Cumulative time (in ticks) in various power states
system.iocache.tags.tagsinuse                3.270365                       # Cycle average of tags in use
system.iocache.tags.total_refs                    179                       # Total number of references to valid blocks.
system.iocache.tags.sampled_refs                  179                       # Sample count of references to valid blocks.
system.iocache.tags.avg_refs                        1                       # Average number of references to valid blocks.
system.iocache.tags.warmup_cycle         2539708554000                       # Cycle when the warmup percentage was hit.
system.iocache.tags.occ_blocks::.tsunami.ide     3.270365                       # Average occupied blocks per requestor
system.iocache.tags.occ_percent::.tsunami.ide     0.204398                       # Average percentage of cache occupancy
system.iocache.tags.occ_percent::total       0.204398                       # Average percentage of cache occupancy
system.iocache.tags.occ_task_id_blocks::1023           16                       # Occupied blocks per task id
system.iocache.tags.age_task_id_blocks_1023::3           16                       # Occupied blocks per task id
system.iocache.tags.occ_task_id_percent::1023            1                       # Percentage of cache occupancy per task id
system.iocache.tags.tag_accesses                 1755                       # Number of tag accesses
system.iocache.tags.data_accesses                1755                       # Number of data accesses
system.membus.pwrStateResidencyTicks::UNDEFINED 2542201599500                       # Cumulative time (in ticks) in various power states
system.membus.trans_dist::ReadReq                 108                       # Transaction distribution
system.membus.trans_dist::ReadResp             131052                       # Transaction distribution
system.membus.trans_dist::WriteReq                100                       # Transaction distribution
system.membus.trans_dist::WriteResp               100                       # Transaction distribution
system.membus.trans_dist::WritebackDirty        34906                       # Transaction distribution
system.membus.trans_dist::WritebackClean        88989                       # Transaction distribution
system.membus.trans_dist::CleanEvict            34577                       # Transaction distribution
system.membus.trans_dist::UpgradeReq               16                       # Transaction distribution
system.membus.trans_dist::ReadExReq             28966                       # Transaction distribution
system.membus.trans_dist::ReadExResp            28966                       # Transaction distribution
system.membus.trans_dist::ReadCleanReq          89579                       # Transaction distribution
system.membus.trans_dist::ReadSharedReq         41367                       # Transaction distribution
system.membus.trans_dist::BadAddressError            2                       # Transaction distribution
system.membus.trans_dist::InvalidateReq           192                       # Transaction distribution
system.membus.pkt_count_system.iocache.mem_side::system.mem_ctrls.port          374                       # Packet count per connected master and slave (bytes)
system.membus.pkt_count_system.iocache.mem_side::total          374                       # Packet count per connected master and slave (bytes)
system.membus.pkt_count_system.cpu.icache.mem_side::system.mem_ctrls.port       268087                       # Packet count per connected master and slave (bytes)
system.membus.pkt_count_system.cpu.icache.mem_side::total       268087                       # Packet count per connected master and slave (bytes)
system.membus.pkt_count_system.cpu.dcache.mem_side::system.bridge.slave          416                       # Packet count per connected master and slave (bytes)
system.membus.pkt_count_system.cpu.dcache.mem_side::system.mem_ctrls.port       209976                       # Packet count per connected master and slave (bytes)
system.membus.pkt_count_system.cpu.dcache.mem_side::system.membus.badaddr_responder.pio            4                       # Packet count per connected master and slave (bytes)
system.membus.pkt_count_system.cpu.dcache.mem_side::total       210396                       # Packet count per connected master and slave (bytes)
system.membus.pkt_count::total                 478857                       # Packet count per connected master and slave (bytes)
system.membus.pkt_size_system.iocache.mem_side::system.mem_ctrls.port        11264                       # Cumulative packet size per connected master and slave (bytes)
system.membus.pkt_size_system.iocache.mem_side::total        11264                       # Cumulative packet size per connected master and slave (bytes)
system.membus.pkt_size_system.cpu.icache.mem_side::system.mem_ctrls.port     11424512                       # Cumulative packet size per connected master and slave (bytes)
system.membus.pkt_size_system.cpu.icache.mem_side::total     11424512                       # Cumulative packet size per connected master and slave (bytes)
system.membus.pkt_size_system.cpu.dcache.mem_side::system.bridge.slave          441                       # Cumulative packet size per connected master and slave (bytes)
system.membus.pkt_size_system.cpu.dcache.mem_side::system.mem_ctrls.port      6723712                       # Cumulative packet size per connected master and slave (bytes)
system.membus.pkt_size_system.cpu.dcache.mem_side::total      6724153                       # Cumulative packet size per connected master and slave (bytes)
system.membus.pkt_size::total                18159929                       # Cumulative packet size per connected master and slave (bytes)
system.membus.snoops                               63                       # Total snoops (count)
system.membus.snoopTraffic                       4032                       # Total snoop traffic (bytes)
system.membus.snoop_fanout::samples            160328                       # Request fanout histogram
system.membus.snoop_fanout::mean             0.002719                       # Request fanout histogram
system.membus.snoop_fanout::stdev            0.052077                       # Request fanout histogram
system.membus.snoop_fanout::underflows              0      0.00%      0.00% # Request fanout histogram
system.membus.snoop_fanout::0                  159892     99.73%     99.73% # Request fanout histogram
system.membus.snoop_fanout::1                     436      0.27%    100.00% # Request fanout histogram
system.membus.snoop_fanout::2                       0      0.00%    100.00% # Request fanout histogram
system.membus.snoop_fanout::3                       0      0.00%    100.00% # Request fanout histogram
system.membus.snoop_fanout::overflows               0      0.00%    100.00% # Request fanout histogram
system.membus.snoop_fanout::min_value               0                       # Request fanout histogram
system.membus.snoop_fanout::max_value               1                       # Request fanout histogram
system.membus.snoop_fanout::total              160328                       # Request fanout histogram
system.membus.reqLayer0.occupancy              351500                       # Layer occupancy (ticks)
system.membus.reqLayer0.utilization               0.0                       # Layer utilization (%)
system.membus.reqLayer1.occupancy           837090528                       # Layer occupancy (ticks)
system.membus.reqLayer1.utilization               6.9                       # Layer utilization (%)
system.membus.reqLayer2.occupancy                3000                       # Layer occupancy (ticks)
system.membus.reqLayer2.utilization               0.0                       # Layer utilization (%)
system.membus.respLayer1.occupancy              17997                       # Layer occupancy (ticks)
system.membus.respLayer1.utilization              0.0                       # Layer utilization (%)
system.membus.respLayer3.occupancy          378376250                       # Layer occupancy (ticks)
system.membus.respLayer3.utilization              3.1                       # Layer utilization (%)
system.membus.badaddr_responder.pwrStateResidencyTicks::UNDEFINED 2542201599500                       # Cumulative time (in ticks) in various power states
system.membus.respLayer2.occupancy          475007000                       # Layer occupancy (ticks)
system.membus.respLayer2.utilization              3.9                       # Layer utilization (%)
system.clk_domain.clock                          1000                       # Clock period in ticks
system.tsunami.fake_uart1.pwrStateResidencyTicks::UNDEFINED 2542201599500                       # Cumulative time (in ticks) in various power states
system.tsunami.fake_uart2.pwrStateResidencyTicks::UNDEFINED 2542201599500                       # Cumulative time (in ticks) in various power states
system.tsunami.fake_uart3.pwrStateResidencyTicks::UNDEFINED 2542201599500                       # Cumulative time (in ticks) in various power states
system.tsunami.fake_uart4.pwrStateResidencyTicks::UNDEFINED 2542201599500                       # Cumulative time (in ticks) in various power states
system.tsunami.fake_ppc.pwrStateResidencyTicks::UNDEFINED 2542201599500                       # Cumulative time (in ticks) in various power states
system.tsunami.cchip.pwrStateResidencyTicks::UNDEFINED 2542201599500                       # Cumulative time (in ticks) in various power states
system.tsunami.io.pwrStateResidencyTicks::UNDEFINED 2542201599500                       # Cumulative time (in ticks) in various power states
system.tsunami.pchip.pwrStateResidencyTicks::UNDEFINED 2542201599500                       # Cumulative time (in ticks) in various power states
system.tsunami.fake_ata1.pwrStateResidencyTicks::UNDEFINED 2542201599500                       # Cumulative time (in ticks) in various power states
system.tsunami.fake_ata0.pwrStateResidencyTicks::UNDEFINED 2542201599500                       # Cumulative time (in ticks) in various power states
system.tsunami.backdoor.pwrStateResidencyTicks::UNDEFINED 2542201599500                       # Cumulative time (in ticks) in various power states
system.tsunami.fake_pnp_read3.pwrStateResidencyTicks::UNDEFINED 2542201599500                       # Cumulative time (in ticks) in various power states
system.tsunami.fake_pnp_read2.pwrStateResidencyTicks::UNDEFINED 2542201599500                       # Cumulative time (in ticks) in various power states
system.tsunami.fake_pnp_read1.pwrStateResidencyTicks::UNDEFINED 2542201599500                       # Cumulative time (in ticks) in various power states
system.tsunami.fake_pnp_read0.pwrStateResidencyTicks::UNDEFINED 2542201599500                       # Cumulative time (in ticks) in various power states
system.tsunami.fake_pnp_read7.pwrStateResidencyTicks::UNDEFINED 2542201599500                       # Cumulative time (in ticks) in various power states
system.tsunami.fake_pnp_read6.pwrStateResidencyTicks::UNDEFINED 2542201599500                       # Cumulative time (in ticks) in various power states
system.tsunami.fake_pnp_read5.pwrStateResidencyTicks::UNDEFINED 2542201599500                       # Cumulative time (in ticks) in various power states
system.tsunami.fake_pnp_read4.pwrStateResidencyTicks::UNDEFINED 2542201599500                       # Cumulative time (in ticks) in various power states
system.tsunami.fake_pnp_write.pwrStateResidencyTicks::UNDEFINED 2542201599500                       # Cumulative time (in ticks) in various power states
system.tsunami.fb.pwrStateResidencyTicks::UNDEFINED 2542201599500                       # Cumulative time (in ticks) in various power states
system.tsunami.fake_pnp_addr.pwrStateResidencyTicks::UNDEFINED 2542201599500                       # Cumulative time (in ticks) in various power states
system.tsunami.fake_OROM.pwrStateResidencyTicks::UNDEFINED 2542201599500                       # Cumulative time (in ticks) in various power states
system.tsunami.uart.pwrStateResidencyTicks::UNDEFINED 2542201599500                       # Cumulative time (in ticks) in various power states
system.tsunami.fake_sm_chip.pwrStateResidencyTicks::UNDEFINED 2542201599500                       # Cumulative time (in ticks) in various power states
system.tsunami.ethernet.pwrStateResidencyTicks::UNDEFINED 2542201599500                       # Cumulative time (in ticks) in various power states
system.tsunami.ide.pwrStateResidencyTicks::UNDEFINED 2542201599500                       # Cumulative time (in ticks) in various power states
system.cpu_voltage_domain.voltage                   1                       # Voltage in Volts
system.mem_ctrls.pwrStateResidencyTicks::UNDEFINED 2542201599500                       # Cumulative time (in ticks) in various power states
system.mem_ctrls.bytes_read::.cpu.inst        5729216                       # Number of bytes read from this memory
system.mem_ctrls.bytes_read::.cpu.data        4500992                       # Number of bytes read from this memory
system.mem_ctrls.bytes_read::total           10230208                       # Number of bytes read from this memory
system.mem_ctrls.bytes_inst_read::.cpu.inst      5729216                       # Number of instructions bytes read from this memory
system.mem_ctrls.bytes_inst_read::total       5729216                       # Number of instructions bytes read from this memory
system.mem_ctrls.bytes_written::.writebacks      2233984                       # Number of bytes written to this memory
system.mem_ctrls.bytes_written::total         2233984                       # Number of bytes written to this memory
system.mem_ctrls.num_reads::.cpu.inst           89519                       # Number of read requests responded to by this memory
system.mem_ctrls.num_reads::.cpu.data           70328                       # Number of read requests responded to by this memory
system.mem_ctrls.num_reads::total              159847                       # Number of read requests responded to by this memory
system.mem_ctrls.num_writes::.writebacks        34906                       # Number of write requests responded to by this memory
system.mem_ctrls.num_writes::total              34906                       # Number of write requests responded to by this memory
system.mem_ctrls.bw_read::.cpu.inst         469925473                       # Total read bandwidth from this memory (bytes/s)
system.mem_ctrls.bw_read::.cpu.data         369183287                       # Total read bandwidth from this memory (bytes/s)
system.mem_ctrls.bw_read::total             839108760                       # Total read bandwidth from this memory (bytes/s)
system.mem_ctrls.bw_inst_read::.cpu.inst    469925473                       # Instruction read bandwidth from this memory (bytes/s)
system.mem_ctrls.bw_inst_read::total        469925473                       # Instruction read bandwidth from this memory (bytes/s)
system.mem_ctrls.bw_write::.writebacks      183237285                       # Write bandwidth from this memory (bytes/s)
system.mem_ctrls.bw_write::total            183237285                       # Write bandwidth from this memory (bytes/s)
system.mem_ctrls.bw_total::.writebacks      183237285                       # Total bandwidth to/from this memory (bytes/s)
system.mem_ctrls.bw_total::.cpu.inst        469925473                       # Total bandwidth to/from this memory (bytes/s)
system.mem_ctrls.bw_total::.cpu.data        369183287                       # Total bandwidth to/from this memory (bytes/s)
system.mem_ctrls.bw_total::total           1022346045                       # Total bandwidth to/from this memory (bytes/s)
system.mem_ctrls.avgPriority_.writebacks::samples    121563.00                       # Average QoS priority value for accepted requests
system.mem_ctrls.avgPriority_.cpu.inst::samples     79439.00                       # Average QoS priority value for accepted requests
system.mem_ctrls.avgPriority_.cpu.data::samples     69826.00                       # Average QoS priority value for accepted requests
system.mem_ctrls.priorityMinLatency      0.000000018750                       # per QoS priority minimum request to response latency (s)
system.mem_ctrls.priorityMaxLatency      0.000179402500                       # per QoS priority maximum request to response latency (s)
system.mem_ctrls.numReadWriteTurnArounds         7477                       # Number of turnarounds from READ to WRITE
system.mem_ctrls.numWriteReadTurnArounds         7477                       # Number of turnarounds from WRITE to READ
system.mem_ctrls.numStayReadState              414413                       # Number of times bus staying in READ state
system.mem_ctrls.numStayWriteState             114149                       # Number of times bus staying in WRITE state
system.mem_ctrls.readReqs                      159847                       # Number of read requests accepted
system.mem_ctrls.writeReqs                     123678                       # Number of write requests accepted
system.mem_ctrls.readBursts                    159847                       # Number of DRAM read bursts, including those serviced by the write queue
system.mem_ctrls.writeBursts                   123678                       # Number of DRAM write bursts, including those merged in the write queue
system.mem_ctrls.servicedByWrQ                  10582                       # Number of DRAM read bursts serviced by the write queue
system.mem_ctrls.mergedWrBursts                  2115                       # Number of DRAM write bursts merged with an existing one
system.mem_ctrls.neitherReadNorWriteReqs            0                       # Number of requests that are neither read nor write
system.mem_ctrls.perBankRdBursts::0              8884                       # Per bank write bursts
system.mem_ctrls.perBankRdBursts::1              6682                       # Per bank write bursts
system.mem_ctrls.perBankRdBursts::2             10208                       # Per bank write bursts
system.mem_ctrls.perBankRdBursts::3              7243                       # Per bank write bursts
system.mem_ctrls.perBankRdBursts::4              8765                       # Per bank write bursts
system.mem_ctrls.perBankRdBursts::5             10107                       # Per bank write bursts
system.mem_ctrls.perBankRdBursts::6              8865                       # Per bank write bursts
system.mem_ctrls.perBankRdBursts::7              8744                       # Per bank write bursts
system.mem_ctrls.perBankRdBursts::8             12035                       # Per bank write bursts
system.mem_ctrls.perBankRdBursts::9              9447                       # Per bank write bursts
system.mem_ctrls.perBankRdBursts::10            10827                       # Per bank write bursts
system.mem_ctrls.perBankRdBursts::11            12221                       # Per bank write bursts
system.mem_ctrls.perBankRdBursts::12             8931                       # Per bank write bursts
system.mem_ctrls.perBankRdBursts::13            13754                       # Per bank write bursts
system.mem_ctrls.perBankRdBursts::14             5595                       # Per bank write bursts
system.mem_ctrls.perBankRdBursts::15             6957                       # Per bank write bursts
system.mem_ctrls.perBankWrBursts::0              7326                       # Per bank write bursts
system.mem_ctrls.perBankWrBursts::1              4492                       # Per bank write bursts
system.mem_ctrls.perBankWrBursts::2              8991                       # Per bank write bursts
system.mem_ctrls.perBankWrBursts::3              8095                       # Per bank write bursts
system.mem_ctrls.perBankWrBursts::4              7932                       # Per bank write bursts
system.mem_ctrls.perBankWrBursts::5              9876                       # Per bank write bursts
system.mem_ctrls.perBankWrBursts::6              7696                       # Per bank write bursts
system.mem_ctrls.perBankWrBursts::7              6961                       # Per bank write bursts
system.mem_ctrls.perBankWrBursts::8             10775                       # Per bank write bursts
system.mem_ctrls.perBankWrBursts::9              8578                       # Per bank write bursts
system.mem_ctrls.perBankWrBursts::10             8069                       # Per bank write bursts
system.mem_ctrls.perBankWrBursts::11             8142                       # Per bank write bursts
system.mem_ctrls.perBankWrBursts::12             5525                       # Per bank write bursts
system.mem_ctrls.perBankWrBursts::13            10077                       # Per bank write bursts
system.mem_ctrls.perBankWrBursts::14             3203                       # Per bank write bursts
system.mem_ctrls.perBankWrBursts::15             5796                       # Per bank write bursts
system.mem_ctrls.avgRdQLen                       1.09                       # Average read queue length when enqueuing
system.mem_ctrls.avgWrQLen                      25.69                       # Average write queue length when enqueuing
system.mem_ctrls.totQLat                   2038521500                       # Total ticks spent queuing
system.mem_ctrls.totBusLat                  746325000                       # Total ticks spent in databus transfers
system.mem_ctrls.totMemAccLat              4837240250                       # Total ticks spent from burst creation until serviced by the DRAM
system.mem_ctrls.avgQLat                     13657.06                       # Average queueing delay per DRAM burst
system.mem_ctrls.avgBusLat                    5000.00                       # Average bus latency per DRAM burst
system.mem_ctrls.avgMemAccLat                32407.06                       # Average memory access latency per DRAM burst
system.mem_ctrls.numRdRetry                         0                       # Number of times read queue was full causing retry
system.mem_ctrls.numWrRetry                         0                       # Number of times write queue was full causing retry
system.mem_ctrls.readRowHits                   105715                       # Number of row buffer hits during reads
system.mem_ctrls.writeRowHits                   82106                       # Number of row buffer hits during writes
system.mem_ctrls.readRowHitRate                 70.82                       # Row buffer hit rate for reads
system.mem_ctrls.writeRowHitRate                67.54                       # Row buffer hit rate for writes
system.mem_ctrls.readPktSize::0                     0                       # Read request sizes (log2)
system.mem_ctrls.readPktSize::1                     0                       # Read request sizes (log2)
system.mem_ctrls.readPktSize::2                     0                       # Read request sizes (log2)
system.mem_ctrls.readPktSize::3                     0                       # Read request sizes (log2)
system.mem_ctrls.readPktSize::4                     0                       # Read request sizes (log2)
system.mem_ctrls.readPktSize::5                     0                       # Read request sizes (log2)
system.mem_ctrls.readPktSize::6                159847                       # Read request sizes (log2)
system.mem_ctrls.writePktSize::0                    0                       # Write request sizes (log2)
system.mem_ctrls.writePktSize::1                    0                       # Write request sizes (log2)
system.mem_ctrls.writePktSize::2                    0                       # Write request sizes (log2)
system.mem_ctrls.writePktSize::3                    0                       # Write request sizes (log2)
system.mem_ctrls.writePktSize::4                    0                       # Write request sizes (log2)
system.mem_ctrls.writePktSize::5                    0                       # Write request sizes (log2)
system.mem_ctrls.writePktSize::6               123678                       # Write request sizes (log2)
system.mem_ctrls.rdQLenPdf::0                  136690                       # What read queue length does an incoming req see
system.mem_ctrls.rdQLenPdf::1                   12264                       # What read queue length does an incoming req see
system.mem_ctrls.rdQLenPdf::2                     311                       # What read queue length does an incoming req see
system.mem_ctrls.rdQLenPdf::3                       0                       # What read queue length does an incoming req see
system.mem_ctrls.rdQLenPdf::4                       0                       # What read queue length does an incoming req see
system.mem_ctrls.rdQLenPdf::5                       0                       # What read queue length does an incoming req see
system.mem_ctrls.rdQLenPdf::6                       0                       # What read queue length does an incoming req see
system.mem_ctrls.rdQLenPdf::7                       0                       # What read queue length does an incoming req see
system.mem_ctrls.rdQLenPdf::8                       0                       # What read queue length does an incoming req see
system.mem_ctrls.rdQLenPdf::9                       0                       # What read queue length does an incoming req see
system.mem_ctrls.rdQLenPdf::10                      0                       # What read queue length does an incoming req see
system.mem_ctrls.rdQLenPdf::11                      0                       # What read queue length does an incoming req see
system.mem_ctrls.rdQLenPdf::12                      0                       # What read queue length does an incoming req see
system.mem_ctrls.rdQLenPdf::13                      0                       # What read queue length does an incoming req see
system.mem_ctrls.rdQLenPdf::14                      0                       # What read queue length does an incoming req see
system.mem_ctrls.rdQLenPdf::15                      0                       # What read queue length does an incoming req see
system.mem_ctrls.rdQLenPdf::16                      0                       # What read queue length does an incoming req see
system.mem_ctrls.rdQLenPdf::17                      0                       # What read queue length does an incoming req see
system.mem_ctrls.rdQLenPdf::18                      0                       # What read queue length does an incoming req see
system.mem_ctrls.rdQLenPdf::19                      0                       # What read queue length does an incoming req see
system.mem_ctrls.rdQLenPdf::20                      0                       # What read queue length does an incoming req see
system.mem_ctrls.rdQLenPdf::21                      0                       # What read queue length does an incoming req see
system.mem_ctrls.rdQLenPdf::22                      0                       # What read queue length does an incoming req see
system.mem_ctrls.rdQLenPdf::23                      0                       # What read queue length does an incoming req see
system.mem_ctrls.rdQLenPdf::24                      0                       # What read queue length does an incoming req see
system.mem_ctrls.rdQLenPdf::25                      0                       # What read queue length does an incoming req see
system.mem_ctrls.rdQLenPdf::26                      0                       # What read queue length does an incoming req see
system.mem_ctrls.rdQLenPdf::27                      0                       # What read queue length does an incoming req see
system.mem_ctrls.rdQLenPdf::28                      0                       # What read queue length does an incoming req see
system.mem_ctrls.rdQLenPdf::29                      0                       # What read queue length does an incoming req see
system.mem_ctrls.rdQLenPdf::30                      0                       # What read queue length does an incoming req see
system.mem_ctrls.rdQLenPdf::31                      0                       # What read queue length does an incoming req see
system.mem_ctrls.wrQLenPdf::0                       1                       # What write queue length does an incoming req see
system.mem_ctrls.wrQLenPdf::1                       1                       # What write queue length does an incoming req see
system.mem_ctrls.wrQLenPdf::2                       1                       # What write queue length does an incoming req see
system.mem_ctrls.wrQLenPdf::3                       1                       # What write queue length does an incoming req see
system.mem_ctrls.wrQLenPdf::4                       1                       # What write queue length does an incoming req see
system.mem_ctrls.wrQLenPdf::5                       1                       # What write queue length does an incoming req see
system.mem_ctrls.wrQLenPdf::6                       1                       # What write queue length does an incoming req see
system.mem_ctrls.wrQLenPdf::7                       1                       # What write queue length does an incoming req see
system.mem_ctrls.wrQLenPdf::8                       1                       # What write queue length does an incoming req see
system.mem_ctrls.wrQLenPdf::9                       1                       # What write queue length does an incoming req see
system.mem_ctrls.wrQLenPdf::10                      1                       # What write queue length does an incoming req see
system.mem_ctrls.wrQLenPdf::11                      1                       # What write queue length does an incoming req see
system.mem_ctrls.wrQLenPdf::12                      1                       # What write queue length does an incoming req see
system.mem_ctrls.wrQLenPdf::13                      1                       # What write queue length does an incoming req see
system.mem_ctrls.wrQLenPdf::14                      1                       # What write queue length does an incoming req see
system.mem_ctrls.wrQLenPdf::15                    706                       # What write queue length does an incoming req see
system.mem_ctrls.wrQLenPdf::16                    806                       # What write queue length does an incoming req see
system.mem_ctrls.wrQLenPdf::17                   6853                       # What write queue length does an incoming req see
system.mem_ctrls.wrQLenPdf::18                   7504                       # What write queue length does an incoming req see
system.mem_ctrls.wrQLenPdf::19                   7594                       # What write queue length does an incoming req see
system.mem_ctrls.wrQLenPdf::20                   7562                       # What write queue length does an incoming req see
system.mem_ctrls.wrQLenPdf::21                   7548                       # What write queue length does an incoming req see
system.mem_ctrls.wrQLenPdf::22                   7653                       # What write queue length does an incoming req see
system.mem_ctrls.wrQLenPdf::23                   7556                       # What write queue length does an incoming req see
system.mem_ctrls.wrQLenPdf::24                   7557                       # What write queue length does an incoming req see
system.mem_ctrls.wrQLenPdf::25                   7563                       # What write queue length does an incoming req see
system.mem_ctrls.wrQLenPdf::26                   7609                       # What write queue length does an incoming req see
system.mem_ctrls.wrQLenPdf::27                   7542                       # What write queue length does an incoming req see
system.mem_ctrls.wrQLenPdf::28                   7530                       # What write queue length does an incoming req see
system.mem_ctrls.wrQLenPdf::29                   7502                       # What write queue length does an incoming req see
system.mem_ctrls.wrQLenPdf::30                   7483                       # What write queue length does an incoming req see
system.mem_ctrls.wrQLenPdf::31                   7478                       # What write queue length does an incoming req see
system.mem_ctrls.wrQLenPdf::32                   7478                       # What write queue length does an incoming req see
system.mem_ctrls.wrQLenPdf::33                     16                       # What write queue length does an incoming req see
system.mem_ctrls.wrQLenPdf::34                      5                       # What write queue length does an incoming req see
system.mem_ctrls.wrQLenPdf::35                      1                       # What write queue length does an incoming req see
system.mem_ctrls.wrQLenPdf::36                      1                       # What write queue length does an incoming req see
system.mem_ctrls.wrQLenPdf::37                      1                       # What write queue length does an incoming req see
system.mem_ctrls.wrQLenPdf::38                      0                       # What write queue length does an incoming req see
system.mem_ctrls.wrQLenPdf::39                      0                       # What write queue length does an incoming req see
system.mem_ctrls.wrQLenPdf::40                      0                       # What write queue length does an incoming req see
system.mem_ctrls.wrQLenPdf::41                      0                       # What write queue length does an incoming req see
system.mem_ctrls.wrQLenPdf::42                      0                       # What write queue length does an incoming req see
system.mem_ctrls.wrQLenPdf::43                      0                       # What write queue length does an incoming req see
system.mem_ctrls.wrQLenPdf::44                      0                       # What write queue length does an incoming req see
system.mem_ctrls.wrQLenPdf::45                      0                       # What write queue length does an incoming req see
system.mem_ctrls.wrQLenPdf::46                      0                       # What write queue length does an incoming req see
system.mem_ctrls.wrQLenPdf::47                      0                       # What write queue length does an incoming req see
system.mem_ctrls.wrQLenPdf::48                      0                       # What write queue length does an incoming req see
system.mem_ctrls.wrQLenPdf::49                      0                       # What write queue length does an incoming req see
system.mem_ctrls.wrQLenPdf::50                      0                       # What write queue length does an incoming req see
system.mem_ctrls.wrQLenPdf::51                      0                       # What write queue length does an incoming req see
system.mem_ctrls.wrQLenPdf::52                      0                       # What write queue length does an incoming req see
system.mem_ctrls.wrQLenPdf::53                      0                       # What write queue length does an incoming req see
system.mem_ctrls.wrQLenPdf::54                      0                       # What write queue length does an incoming req see
system.mem_ctrls.wrQLenPdf::55                      0                       # What write queue length does an incoming req see
system.mem_ctrls.wrQLenPdf::56                      0                       # What write queue length does an incoming req see
system.mem_ctrls.wrQLenPdf::57                      0                       # What write queue length does an incoming req see
system.mem_ctrls.wrQLenPdf::58                      0                       # What write queue length does an incoming req see
system.mem_ctrls.wrQLenPdf::59                      0                       # What write queue length does an incoming req see
system.mem_ctrls.wrQLenPdf::60                      0                       # What write queue length does an incoming req see
system.mem_ctrls.wrQLenPdf::61                      0                       # What write queue length does an incoming req see
system.mem_ctrls.wrQLenPdf::62                      0                       # What write queue length does an incoming req see
system.mem_ctrls.wrQLenPdf::63                      0                       # What write queue length does an incoming req see
system.mem_ctrls.bytesPerActivate::samples        82966                       # Bytes accessed per row activation
system.mem_ctrls.bytesPerActivate::mean    208.859726                       # Bytes accessed per row activation
system.mem_ctrls.bytesPerActivate::gmean   140.523481                       # Bytes accessed per row activation
system.mem_ctrls.bytesPerActivate::stdev   224.975050                       # Bytes accessed per row activation
system.mem_ctrls.bytesPerActivate::0-127        35022     42.21%     42.21% # Bytes accessed per row activation
system.mem_ctrls.bytesPerActivate::128-255        24734     29.81%     72.02% # Bytes accessed per row activation
system.mem_ctrls.bytesPerActivate::256-383        10187     12.28%     84.30% # Bytes accessed per row activation
system.mem_ctrls.bytesPerActivate::384-511         4711      5.68%     89.98% # Bytes accessed per row activation
system.mem_ctrls.bytesPerActivate::512-639         2447      2.95%     92.93% # Bytes accessed per row activation
system.mem_ctrls.bytesPerActivate::640-767         1471      1.77%     94.70% # Bytes accessed per row activation
system.mem_ctrls.bytesPerActivate::768-895          962      1.16%     95.86% # Bytes accessed per row activation
system.mem_ctrls.bytesPerActivate::896-1023          613      0.74%     96.60% # Bytes accessed per row activation
system.mem_ctrls.bytesPerActivate::1024-1151         2819      3.40%    100.00% # Bytes accessed per row activation
system.mem_ctrls.bytesPerActivate::total        82966                       # Bytes accessed per row activation
system.mem_ctrls.rdPerTurnAround::samples         7477                       # Reads before turning the bus around for writes
system.mem_ctrls.rdPerTurnAround::mean      19.961348                       # Reads before turning the bus around for writes
system.mem_ctrls.rdPerTurnAround::gmean     18.368640                       # Reads before turning the bus around for writes
system.mem_ctrls.rdPerTurnAround::stdev     12.520736                       # Reads before turning the bus around for writes
system.mem_ctrls.rdPerTurnAround::0-15           1325     17.72%     17.72% # Reads before turning the bus around for writes
system.mem_ctrls.rdPerTurnAround::16-31          5668     75.81%     93.53% # Reads before turning the bus around for writes
system.mem_ctrls.rdPerTurnAround::32-47           301      4.03%     97.55% # Reads before turning the bus around for writes
system.mem_ctrls.rdPerTurnAround::48-63            79      1.06%     98.61% # Reads before turning the bus around for writes
system.mem_ctrls.rdPerTurnAround::64-79            38      0.51%     99.12% # Reads before turning the bus around for writes
system.mem_ctrls.rdPerTurnAround::80-95            22      0.29%     99.41% # Reads before turning the bus around for writes
system.mem_ctrls.rdPerTurnAround::96-111           17      0.23%     99.64% # Reads before turning the bus around for writes
system.mem_ctrls.rdPerTurnAround::112-127            7      0.09%     99.73% # Reads before turning the bus around for writes
system.mem_ctrls.rdPerTurnAround::128-143           10      0.13%     99.87% # Reads before turning the bus around for writes
system.mem_ctrls.rdPerTurnAround::144-159            5      0.07%     99.93% # Reads before turning the bus around for writes
system.mem_ctrls.rdPerTurnAround::160-175            2      0.03%     99.96% # Reads before turning the bus around for writes
system.mem_ctrls.rdPerTurnAround::176-191            2      0.03%     99.99% # Reads before turning the bus around for writes
system.mem_ctrls.rdPerTurnAround::416-431            1      0.01%    100.00% # Reads before turning the bus around for writes
system.mem_ctrls.rdPerTurnAround::total          7477                       # Reads before turning the bus around for writes
system.mem_ctrls.wrPerTurnAround::samples         7477                       # Writes before turning the bus around for reads
system.mem_ctrls.wrPerTurnAround::mean      16.254380                       # Writes before turning the bus around for reads
system.mem_ctrls.wrPerTurnAround::gmean     16.238168                       # Writes before turning the bus around for reads
system.mem_ctrls.wrPerTurnAround::stdev      0.758770                       # Writes before turning the bus around for reads
system.mem_ctrls.wrPerTurnAround::16             6630     88.67%     88.67% # Writes before turning the bus around for reads
system.mem_ctrls.wrPerTurnAround::17              102      1.36%     90.04% # Writes before turning the bus around for reads
system.mem_ctrls.wrPerTurnAround::18              505      6.75%     96.79% # Writes before turning the bus around for reads
system.mem_ctrls.wrPerTurnAround::19              178      2.38%     99.17% # Writes before turning the bus around for reads
system.mem_ctrls.wrPerTurnAround::20               54      0.72%     99.89% # Writes before turning the bus around for reads
system.mem_ctrls.wrPerTurnAround::21                8      0.11%    100.00% # Writes before turning the bus around for reads
system.mem_ctrls.wrPerTurnAround::total          7477                       # Writes before turning the bus around for reads
system.mem_ctrls.bytesReadDRAM                9552960                       # Total number of bytes read from DRAM
system.mem_ctrls.bytesReadWrQ                  677248                       # Total number of bytes read from write queue
system.mem_ctrls.bytesWritten                 7778176                       # Total number of bytes written to DRAM
system.mem_ctrls.bytesReadSys                10230208                       # Total read bytes from the system interface side
system.mem_ctrls.bytesWrittenSys              7915392                       # Total written bytes from the system interface side
system.mem_ctrls.avgRdBW                       783.56                       # Average DRAM read bandwidth in MiByte/s
system.mem_ctrls.avgWrBW                       637.99                       # Average achieved write bandwidth in MiByte/s
system.mem_ctrls.avgRdBWSys                    839.11                       # Average system read bandwidth in MiByte/s
system.mem_ctrls.avgWrBWSys                    649.24                       # Average system write bandwidth in MiByte/s
system.mem_ctrls.peakBW                      12800.00                       # Theoretical peak bandwidth in MiByte/s
system.mem_ctrls.busUtil                        11.11                       # Data bus utilization in percentage
system.mem_ctrls.busUtilRead                     6.12                       # Data bus utilization in percentage for reads
system.mem_ctrls.busUtilWrite                    4.98                       # Data bus utilization in percentage for writes
system.mem_ctrls.totGap                   12191749500                       # Total gap between requests
system.mem_ctrls.avgGap                      43000.62                       # Average gap between requests
system.mem_ctrls.masterReadBytes::.cpu.inst      5084096                       # Per-master bytes read from memory
system.mem_ctrls.masterReadBytes::.cpu.data      4468864                       # Per-master bytes read from memory
system.mem_ctrls.masterWriteBytes::.writebacks      7778176                       # Per-master bytes write to memory
system.mem_ctrls.masterReadRate::.cpu.inst 417011021.670424878597                       # Per-master bytes read from memory rate (Bytes/sec)
system.mem_ctrls.masterReadRate::.cpu.data 366548063.283262431622                       # Per-master bytes read from memory rate (Bytes/sec)
system.mem_ctrls.masterWriteRate::.writebacks 637986599.877810835838                       # Per-master bytes write to memory rate (Bytes/sec)
[...]
system.cpu.icache.tags.warmup_cycle                 0                       # Cycle when the warmup percentage was hit.
system.cpu.icache.tags.occ_blocks::.cpu.inst   511.991737                       # Average occupied blocks per requestor
system.cpu.icache.tags.occ_percent::.cpu.inst     0.999984                       # Average percentage of cache occupancy
system.cpu.icache.tags.occ_percent::total     0.999984                       # Average percentage of cache occupancy
system.cpu.icache.tags.occ_task_id_blocks::1024          512                       # Occupied blocks per task id
system.cpu.icache.tags.age_task_id_blocks_1024::0           79                       # Occupied blocks per task id
system.cpu.icache.tags.age_task_id_blocks_1024::1           25                       # Occupied blocks per task id
system.cpu.icache.tags.age_task_id_blocks_1024::2          404                       # Occupied blocks per task id
system.cpu.icache.tags.age_task_id_blocks_1024::3            4                       # Occupied blocks per task id
system.cpu.icache.tags.occ_task_id_percent::1024            1                       # Percentage of cache occupancy per task id
system.cpu.icache.tags.tag_accesses           5602596                       # Number of tag accesses
system.cpu.icache.tags.data_accesses          5602596                       # Number of data accesses
system.cpu.dcache.pwrStateResidencyTicks::UNDEFINED  12027031000                       # Cumulative time (in ticks) in various power states
system.cpu.dcache.demand_hits::.cpu.data      1836297                       # number of demand (read+write) hits
system.cpu.dcache.demand_hits::total          1836297                       # number of demand (read+write) hits
system.cpu.dcache.overall_hits::.cpu.data      1836297                       # number of overall hits
system.cpu.dcache.overall_hits::total         1836297                       # number of overall hits
system.cpu.dcache.demand_misses::.cpu.data       122585                       # number of demand (read+write) misses
system.cpu.dcache.demand_misses::total         122585                       # number of demand (read+write) misses
system.cpu.dcache.overall_misses::.cpu.data       122585                       # number of overall misses
system.cpu.dcache.overall_misses::total        122585                       # number of overall misses
system.cpu.dcache.demand_miss_latency::.cpu.data   7072356000                       # number of demand (read+write) miss cycles
system.cpu.dcache.demand_miss_latency::total   7072356000                       # number of demand (read+write) miss cycles
system.cpu.dcache.overall_miss_latency::.cpu.data   7072356000                       # number of overall miss cycles
system.cpu.dcache.overall_miss_latency::total   7072356000                       # number of overall miss cycles
system.cpu.dcache.demand_accesses::.cpu.data      1958882                       # number of demand (read+write) accesses
system.cpu.dcache.demand_accesses::total      1958882                       # number of demand (read+write) accesses
system.cpu.dcache.overall_accesses::.cpu.data      1958882                       # number of overall (read+write) accesses
system.cpu.dcache.overall_accesses::total      1958882                       # number of overall (read+write) accesses
system.cpu.dcache.demand_miss_rate::.cpu.data     0.062579                       # miss rate for demand accesses
system.cpu.dcache.demand_miss_rate::total     0.062579                       # miss rate for demand accesses
system.cpu.dcache.overall_miss_rate::.cpu.data     0.062579                       # miss rate for overall accesses
system.cpu.dcache.overall_miss_rate::total     0.062579                       # miss rate for overall accesses
system.cpu.dcache.demand_avg_miss_latency::.cpu.data 57693.486152                       # average overall miss latency
system.cpu.dcache.demand_avg_miss_latency::total 57693.486152                       # average overall miss latency
system.cpu.dcache.overall_avg_miss_latency::.cpu.data 57693.486152                       # average overall miss latency
system.cpu.dcache.overall_avg_miss_latency::total 57693.486152                       # average overall miss latency
system.cpu.dcache.blocked_cycles::no_mshrs            0                       # number of cycles access was blocked
system.cpu.dcache.blocked_cycles::no_targets            0                       # number of cycles access was blocked
system.cpu.dcache.blocked::no_mshrs                 0                       # number of cycles access was blocked
system.cpu.dcache.blocked::no_targets               0                       # number of cycles access was blocked
system.cpu.dcache.avg_blocked_cycles::no_mshrs          nan                       # average number of cycles each access was blocked
system.cpu.dcache.avg_blocked_cycles::no_targets          nan                       # average number of cycles each access was blocked
system.cpu.dcache.writebacks::.writebacks        57019                       # number of writebacks
system.cpu.dcache.writebacks::total             57019                       # number of writebacks
system.cpu.dcache.demand_mshr_hits::.cpu.data        56748                       # number of demand (read+write) MSHR hits
system.cpu.dcache.demand_mshr_hits::total        56748                       # number of demand (read+write) MSHR hits
system.cpu.dcache.overall_mshr_hits::.cpu.data        56748                       # number of overall MSHR hits
system.cpu.dcache.overall_mshr_hits::total        56748                       # number of overall MSHR hits
system.cpu.dcache.demand_mshr_misses::.cpu.data        65837                       # number of demand (read+write) MSHR misses
system.cpu.dcache.demand_mshr_misses::total        65837                       # number of demand (read+write) MSHR misses
system.cpu.dcache.overall_mshr_misses::.cpu.data        65837                       # number of overall MSHR misses
system.cpu.dcache.overall_mshr_misses::total        65837                       # number of overall MSHR misses
system.cpu.dcache.overall_mshr_uncacheable_misses::.cpu.data          256                       # number of overall MSHR uncacheable misses
system.cpu.dcache.overall_mshr_uncacheable_misses::total          256                       # number of overall MSHR uncacheable misses
system.cpu.dcache.demand_mshr_miss_latency::.cpu.data   3875534000                       # number of demand (read+write) MSHR miss cycles
system.cpu.dcache.demand_mshr_miss_latency::total   3875534000                       # number of demand (read+write) MSHR miss cycles
system.cpu.dcache.overall_mshr_miss_latency::.cpu.data   3875534000                       # number of overall MSHR miss cycles
system.cpu.dcache.overall_mshr_miss_latency::total   3875534000                       # number of overall MSHR miss cycles
system.cpu.dcache.overall_mshr_uncacheable_latency::.cpu.data     35869500                       # number of overall MSHR uncacheable cycles
system.cpu.dcache.overall_mshr_uncacheable_latency::total     35869500                       # number of overall MSHR uncacheable cycles
system.cpu.dcache.demand_mshr_miss_rate::.cpu.data     0.033609                       # mshr miss rate for demand accesses
system.cpu.dcache.demand_mshr_miss_rate::total     0.033609                       # mshr miss rate for demand accesses
system.cpu.dcache.overall_mshr_miss_rate::.cpu.data     0.033609                       # mshr miss rate for overall accesses
system.cpu.dcache.overall_mshr_miss_rate::total     0.033609                       # mshr miss rate for overall accesses
system.cpu.dcache.demand_avg_mshr_miss_latency::.cpu.data 58865.592296                       # average overall mshr miss latency
system.cpu.dcache.demand_avg_mshr_miss_latency::total 58865.592296                       # average overall mshr miss latency
system.cpu.dcache.overall_avg_mshr_miss_latency::.cpu.data 58865.592296                       # average overall mshr miss latency
system.cpu.dcache.overall_avg_mshr_miss_latency::total 58865.592296                       # average overall mshr miss latency
system.cpu.dcache.overall_avg_mshr_uncacheable_latency::.cpu.data 140115.234375                       # average overall mshr uncacheable latency
system.cpu.dcache.overall_avg_mshr_uncacheable_latency::total 140115.234375                       # average overall mshr uncacheable latency
system.cpu.dcache.replacements                  66158                       # number of replacements
system.cpu.dcache.ReadReq_hits::.cpu.data      1000174                       # number of ReadReq hits
system.cpu.dcache.ReadReq_hits::total         1000174                       # number of ReadReq hits
system.cpu.dcache.ReadReq_misses::.cpu.data        12755                       # number of ReadReq misses
system.cpu.dcache.ReadReq_misses::total         12755                       # number of ReadReq misses
system.cpu.dcache.ReadReq_miss_latency::.cpu.data    855374500                       # number of ReadReq miss cycles
system.cpu.dcache.ReadReq_miss_latency::total    855374500                       # number of ReadReq miss cycles
system.cpu.dcache.ReadReq_accesses::.cpu.data      1012929                       # number of ReadReq accesses(hits+misses)
system.cpu.dcache.ReadReq_accesses::total      1012929                       # number of ReadReq accesses(hits+misses)
system.cpu.dcache.ReadReq_miss_rate::.cpu.data     0.012592                       # miss rate for ReadReq accesses
system.cpu.dcache.ReadReq_miss_rate::total     0.012592                       # miss rate for ReadReq accesses
system.cpu.dcache.ReadReq_avg_miss_latency::.cpu.data 67061.897295                       # average ReadReq miss latency
system.cpu.dcache.ReadReq_avg_miss_latency::total 67061.897295                       # average ReadReq miss latency
system.cpu.dcache.ReadReq_mshr_hits::.cpu.data         2186                       # number of ReadReq MSHR hits
system.cpu.dcache.ReadReq_mshr_hits::total         2186                       # number of ReadReq MSHR hits
system.cpu.dcache.ReadReq_mshr_misses::.cpu.data        10569                       # number of ReadReq MSHR misses
system.cpu.dcache.ReadReq_mshr_misses::total        10569                       # number of ReadReq MSHR misses
system.cpu.dcache.ReadReq_mshr_uncacheable::.cpu.data          165                       # number of ReadReq MSHR uncacheable
system.cpu.dcache.ReadReq_mshr_uncacheable::total          165                       # number of ReadReq MSHR uncacheable
system.cpu.dcache.ReadReq_mshr_miss_latency::.cpu.data    709185000                       # number of ReadReq MSHR miss cycles
system.cpu.dcache.ReadReq_mshr_miss_latency::total    709185000                       # number of ReadReq MSHR miss cycles
system.cpu.dcache.ReadReq_mshr_uncacheable_latency::.cpu.data     35869500                       # number of ReadReq MSHR uncacheable cycles
system.cpu.dcache.ReadReq_mshr_uncacheable_latency::total     35869500                       # number of ReadReq MSHR uncacheable cycles
system.cpu.dcache.ReadReq_mshr_miss_rate::.cpu.data     0.010434                       # mshr miss rate for ReadReq accesses
system.cpu.dcache.ReadReq_mshr_miss_rate::total     0.010434                       # mshr miss rate for ReadReq accesses
system.cpu.dcache.ReadReq_avg_mshr_miss_latency::.cpu.data 67100.482543                       # average ReadReq mshr miss latency
system.cpu.dcache.ReadReq_avg_mshr_miss_latency::total 67100.482543                       # average ReadReq mshr miss latency
system.cpu.dcache.ReadReq_avg_mshr_uncacheable_latency::.cpu.data 217390.909091                       # average ReadReq mshr uncacheable latency
system.cpu.dcache.ReadReq_avg_mshr_uncacheable_latency::total 217390.909091                       # average ReadReq mshr uncacheable latency
system.cpu.dcache.WriteReq_hits::.cpu.data       836123                       # number of WriteReq hits
system.cpu.dcache.WriteReq_hits::total         836123                       # number of WriteReq hits
system.cpu.dcache.WriteReq_misses::.cpu.data       109830                       # number of WriteReq misses
system.cpu.dcache.WriteReq_misses::total       109830                       # number of WriteReq misses
system.cpu.dcache.WriteReq_miss_latency::.cpu.data   6216981500                       # number of WriteReq miss cycles
system.cpu.dcache.WriteReq_miss_latency::total   6216981500                       # number of WriteReq miss cycles
system.cpu.dcache.WriteReq_accesses::.cpu.data       945953                       # number of WriteReq accesses(hits+misses)
system.cpu.dcache.WriteReq_accesses::total       945953                       # number of WriteReq accesses(hits+misses)
system.cpu.dcache.WriteReq_miss_rate::.cpu.data     0.116105                       # miss rate for WriteReq accesses
system.cpu.dcache.WriteReq_miss_rate::total     0.116105                       # miss rate for WriteReq accesses
system.cpu.dcache.WriteReq_avg_miss_latency::.cpu.data 56605.494856                       # average WriteReq miss latency
system.cpu.dcache.WriteReq_avg_miss_latency::total 56605.494856                       # average WriteReq miss latency
system.cpu.dcache.WriteReq_mshr_hits::.cpu.data        54562                       # number of WriteReq MSHR hits
system.cpu.dcache.WriteReq_mshr_hits::total        54562                       # number of WriteReq MSHR hits
system.cpu.dcache.WriteReq_mshr_misses::.cpu.data        55268                       # number of WriteReq MSHR misses
system.cpu.dcache.WriteReq_mshr_misses::total        55268                       # number of WriteReq MSHR misses
system.cpu.dcache.WriteReq_mshr_uncacheable::.cpu.data           91                       # number of WriteReq MSHR uncacheable
system.cpu.dcache.WriteReq_mshr_uncacheable::total           91                       # number of WriteReq MSHR uncacheable
system.cpu.dcache.WriteReq_mshr_miss_latency::.cpu.data   3166349000                       # number of WriteReq MSHR miss cycles
system.cpu.dcache.WriteReq_mshr_miss_latency::total   3166349000                       # number of WriteReq MSHR miss cycles
system.cpu.dcache.WriteReq_mshr_miss_rate::.cpu.data     0.058426                       # mshr miss rate for WriteReq accesses
system.cpu.dcache.WriteReq_mshr_miss_rate::total     0.058426                       # mshr miss rate for WriteReq accesses
system.cpu.dcache.WriteReq_avg_mshr_miss_latency::.cpu.data 57290.819281                       # average WriteReq mshr miss latency
system.cpu.dcache.WriteReq_avg_mshr_miss_latency::total 57290.819281                       # average WriteReq mshr miss latency
system.cpu.dcache.LoadLockedReq_hits::.cpu.data         4500                       # number of LoadLockedReq hits
system.cpu.dcache.LoadLockedReq_hits::total         4500                       # number of LoadLockedReq hits
system.cpu.dcache.LoadLockedReq_misses::.cpu.data          322                       # number of LoadLockedReq misses
system.cpu.dcache.LoadLockedReq_misses::total          322                       # number of LoadLockedReq misses
system.cpu.dcache.LoadLockedReq_miss_latency::.cpu.data     22541000                       # number of LoadLockedReq miss cycles
system.cpu.dcache.LoadLockedReq_miss_latency::total     22541000                       # number of LoadLockedReq miss cycles
system.cpu.dcache.LoadLockedReq_accesses::.cpu.data         4822                       # number of LoadLockedReq accesses(hits+misses)
system.cpu.dcache.LoadLockedReq_accesses::total         4822                       # number of LoadLockedReq accesses(hits+misses)
system.cpu.dcache.LoadLockedReq_miss_rate::.cpu.data     0.066777                       # miss rate for LoadLockedReq accesses
system.cpu.dcache.LoadLockedReq_miss_rate::total     0.066777                       # miss rate for LoadLockedReq accesses
system.cpu.dcache.LoadLockedReq_avg_miss_latency::.cpu.data 70003.105590                       # average LoadLockedReq miss latency
system.cpu.dcache.LoadLockedReq_avg_miss_latency::total 70003.105590                       # average LoadLockedReq miss latency
system.cpu.dcache.LoadLockedReq_mshr_misses::.cpu.data          322                       # number of LoadLockedReq MSHR misses
system.cpu.dcache.LoadLockedReq_mshr_misses::total          322                       # number of LoadLockedReq MSHR misses
system.cpu.dcache.LoadLockedReq_mshr_miss_latency::.cpu.data     22219000                       # number of LoadLockedReq MSHR miss cycles
system.cpu.dcache.LoadLockedReq_mshr_miss_latency::total     22219000                       # number of LoadLockedReq MSHR miss cycles
system.cpu.dcache.LoadLockedReq_mshr_miss_rate::.cpu.data     0.066777                       # mshr miss rate for LoadLockedReq accesses
system.cpu.dcache.LoadLockedReq_mshr_miss_rate::total     0.066777                       # mshr miss rate for LoadLockedReq accesses
system.cpu.dcache.LoadLockedReq_avg_mshr_miss_latency::.cpu.data 69003.105590                       # average LoadLockedReq mshr miss latency
system.cpu.dcache.LoadLockedReq_avg_mshr_miss_latency::total 69003.105590                       # average LoadLockedReq mshr miss latency
system.cpu.dcache.StoreCondReq_hits::.cpu.data         4771                       # number of StoreCondReq hits
system.cpu.dcache.StoreCondReq_hits::total         4771                       # number of StoreCondReq hits
system.cpu.dcache.StoreCondReq_accesses::.cpu.data         4771                       # number of StoreCondReq accesses(hits+misses)
system.cpu.dcache.StoreCondReq_accesses::total         4771                       # number of StoreCondReq accesses(hits+misses)
system.cpu.dcache.tags.pwrStateResidencyTicks::UNDEFINED  12027031000                       # Cumulative time (in ticks) in various power states
system.cpu.dcache.tags.tagsinuse                 1024                       # Cycle average of tags in use
system.cpu.dcache.tags.total_refs             7565572                       # Total number of references to valid blocks.
system.cpu.dcache.tags.sampled_refs             67182                       # Sample count of references to valid blocks.
system.cpu.dcache.tags.avg_refs            112.613081                       # Average number of references to valid blocks.
system.cpu.dcache.tags.warmup_cycle                 0                       # Cycle when the warmup percentage was hit.
system.cpu.dcache.tags.occ_blocks::.cpu.data         1024                       # Average occupied blocks per requestor
system.cpu.dcache.tags.occ_percent::.cpu.data            1                       # Average percentage of cache occupancy
system.cpu.dcache.tags.occ_percent::total            1                       # Average percentage of cache occupancy
system.cpu.dcache.tags.occ_task_id_blocks::1024         1024                       # Occupied blocks per task id
system.cpu.dcache.tags.age_task_id_blocks_1024::0           44                       # Occupied blocks per task id
system.cpu.dcache.tags.age_task_id_blocks_1024::1          861                       # Occupied blocks per task id
system.cpu.dcache.tags.age_task_id_blocks_1024::2          107                       # Occupied blocks per task id
system.cpu.dcache.tags.age_task_id_blocks_1024::3           12                       # Occupied blocks per task id
system.cpu.dcache.tags.occ_task_id_percent::1024            1                       # Percentage of cache occupancy per task id
system.cpu.dcache.tags.tag_accesses           4003108                       # Number of tag accesses
system.cpu.dcache.tags.data_accesses          4003108                       # Number of data accesses

---------- End Simulation Statistics   ----------
