
---------- Begin Simulation Statistics ----------
final_tick                               2541878721500                       # Number of ticks from beginning of simulation (restored from checkpoints and never reset)
host_inst_rate                                 208556                       # Simulator instruction rate (inst/s)
host_mem_usage                                 746816                       # Number of bytes of host memory used
host_op_rate                                   208554                       # Simulator op (including micro ops) rate (op/s)
host_seconds                                    20.11                       # Real time elapsed on the host
host_tick_rate                              590176731                       # Simulator tick rate (ticks/s)
sim_freq                                 1000000000000                       # Frequency of simulated ticks
sim_insts                                     4194167                       # Number of instructions simulated
sim_ops                                       4194167                       # Number of ops (including micro ops) simulated
sim_seconds                                  0.011869                       # Number of seconds simulated
sim_ticks                                 11868876500                       # Number of ticks simulated
system.cpu.branchPred.BTBCorrect                    0                       # Number of correct BTB predictions (this stat may not work properly.
system.cpu.branchPred.BTBHitPct             46.406300                       # BTB Hit Percentage
system.cpu.branchPred.BTBHits                  367543                       # Number of BTB hits
system.cpu.branchPred.BTBLookups               792011                       # Number of BTB lookups
system.cpu.branchPred.RASInCorrect               2569                       # Number of incorrect RAS predictions.
system.cpu.branchPred.condIncorrect             78141                       # Number of conditional branches incorrect
system.cpu.branchPred.condPredicted            841600                       # Number of conditional branches predicted
system.cpu.branchPred.indirectHits              45090                       # Number of indirect target hits.
system.cpu.branchPred.indirectLookups          289423                       # Number of indirect predictor lookups.
system.cpu.branchPred.indirectMisses           244333                       # Number of indirect misses.
system.cpu.branchPred.lookups                 1020300                       # Number of BP lookups
system.cpu.branchPred.usedRAS                   65029                       # Number of times the RAS was used to get a target.
system.cpu.branchPredindirectMispredicted        31340                       # Number of mispredicted indirect branches.
system.cpu.committedInsts                     4194167                       # Number of instructions committed
system.cpu.committedOps                       4194167                       # Number of ops (including micro ops) committed
system.cpu.cpi                               5.656494                       # CPI: cycles per instruction
system.cpu.discardedOps                        215848                       # Number of ops (including micro ops) which were discarded before commit
system.cpu.dtb.data_accesses                   608149                       # DTB accesses
system.cpu.dtb.data_acv                           130                       # DTB access violations
system.cpu.dtb.data_hits                      1456559                       # DTB hits
system.cpu.dtb.data_misses                       7627                       # DTB misses
system.cpu.dtb.fetch_accesses                       0                       # ITB accesses
system.cpu.dtb.fetch_acv                            0                       # ITB acv
system.cpu.dtb.fetch_hits                           0                       # ITB hits
system.cpu.dtb.fetch_misses                         0                       # ITB misses
system.cpu.dtb.read_accesses                   406927                       # DTB read accesses
system.cpu.dtb.read_acv                            43                       # DTB read access violations
system.cpu.dtb.read_hits                       854032                       # DTB read hits
system.cpu.dtb.read_misses                       6812                       # DTB read misses
system.cpu.dtb.write_accesses                  201222                       # DTB write accesses
system.cpu.dtb.write_acv                           87                       # DTB write access violations
system.cpu.dtb.write_hits                      602527                       # DTB write hits
system.cpu.dtb.write_misses                       815                       # DTB write misses
system.cpu.fetch2.amo_instructions                  0                       # Number of memory atomic instructions successfully decoded
system.cpu.fetch2.fp_instructions               18131                       # Number of floating point instructions successfully decoded
system.cpu.fetch2.int_instructions            3437241                       # Number of integer instructions successfully decoded
system.cpu.fetch2.load_instructions           1055148                       # Number of memory load instructions successfully decoded
system.cpu.fetch2.store_instructions           663588                       # Number of memory store instructions successfully decoded
system.cpu.fetch2.vec_instructions                  0                       # Number of SIMD instructions successfully decoded
system.cpu.idleCycles                        16827820                       # Total number of cycles that the object has spent stopped
system.cpu.ipc                               0.176788                       # IPC: instructions per cycle
system.cpu.itb.data_accesses                        0                       # DTB accesses
system.cpu.itb.data_acv                             0                       # DTB access violations
system.cpu.itb.data_hits                            0                       # DTB hits
system.cpu.itb.data_misses                          0                       # DTB misses
system.cpu.itb.fetch_accesses                  941727                       # ITB accesses
system.cpu.itb.fetch_acv                          806                       # ITB acv
system.cpu.itb.fetch_hits                      934788                       # ITB hits
system.cpu.itb.fetch_misses                      6939                       # ITB misses
system.cpu.itb.read_accesses                        0                       # DTB read accesses
system.cpu.itb.read_acv                             0                       # DTB read access violations
system.cpu.itb.read_hits                            0                       # DTB read hits
system.cpu.itb.read_misses                          0                       # DTB read misses
system.cpu.itb.write_accesses                       0                       # DTB write accesses
system.cpu.itb.write_acv                            0                       # DTB write access violations
system.cpu.itb.write_hits                           0                       # DTB write hits
system.cpu.itb.write_misses                         0                       # DTB write misses
system.cpu.kern.callpal::swpctx                   574      9.44%      9.44% # number of callpals executed
system.cpu.kern.callpal::tbi                       25      0.41%      9.85% # number of callpals executed
system.cpu.kern.callpal::swpipl                  4220     69.37%     79.22% # number of callpals executed
system.cpu.kern.callpal::rdps                      48      0.79%     80.01% # number of callpals executed
system.cpu.kern.callpal::wrusp                      4      0.07%     80.08% # number of callpals executed
system.cpu.kern.callpal::rdusp                      3      0.05%     80.12% # number of callpals executed
system.cpu.kern.callpal::rti                      896     14.73%     94.85% # number of callpals executed
system.cpu.kern.callpal::callsys                  235      3.86%     98.72% # number of callpals executed
system.cpu.kern.callpal::imb                       78      1.28%    100.00% # number of callpals executed
system.cpu.kern.callpal::total                   6083                       # number of callpals executed
system.cpu.kern.inst.arm                            0                       # number of arm instructions executed
system.cpu.kern.inst.hwrei                      14426                       # number of hwrei instructions executed
system.cpu.kern.inst.quiesce                        9                       # number of quiesce instructions executed
system.cpu.kern.ipl_count::0                     2434     47.42%     47.42% # number of times we switched to this ipl
system.cpu.kern.ipl_count::21                       5      0.10%     47.52% # number of times we switched to this ipl
system.cpu.kern.ipl_count::22                      12      0.23%     47.75% # number of times we switched to this ipl
system.cpu.kern.ipl_count::31                    2682     52.25%    100.00% # number of times we switched to this ipl
system.cpu.kern.ipl_count::total                 5133                       # number of times we switched to this ipl
system.cpu.kern.ipl_good::0                      2421     49.83%     49.83% # number of times we switched to this ipl from a different ipl
system.cpu.kern.ipl_good::21                        5      0.10%     49.93% # number of times we switched to this ipl from a different ipl
system.cpu.kern.ipl_good::22                       12      0.25%     50.17% # number of times we switched to this ipl from a different ipl
system.cpu.kern.ipl_good::31                     2421     49.83%    100.00% # number of times we switched to this ipl from a different ipl
system.cpu.kern.ipl_good::total                  4859                       # number of times we switched to this ipl from a different ipl
system.cpu.kern.ipl_ticks::0              10958059500     92.29%     92.29% # number of cycles we spent at this ipl
system.cpu.kern.ipl_ticks::21                 9124000      0.08%     92.37% # number of cycles we spent at this ipl
system.cpu.kern.ipl_ticks::22                17652000      0.15%     92.52% # number of cycles we spent at this ipl
system.cpu.kern.ipl_ticks::31               888076500      7.48%    100.00% # number of cycles we spent at this ipl
system.cpu.kern.ipl_ticks::total          11872912000                       # number of cycles we spent at this ipl
system.cpu.kern.ipl_used::0                  0.994659                       # fraction of swpipl calls that actually changed the ipl
system.cpu.kern.ipl_used::21                        1                       # fraction of swpipl calls that actually changed the ipl
system.cpu.kern.ipl_used::22                        1                       # fraction of swpipl calls that actually changed the ipl
system.cpu.kern.ipl_used::31                 0.902685                       # fraction of swpipl calls that actually changed the ipl
system.cpu.kern.ipl_used::total              0.946620                       # fraction of swpipl calls that actually changed the ipl
system.cpu.kern.mode_good::kernel                 871                      
system.cpu.kern.mode_good::user                   871                      
system.cpu.kern.mode_good::idle                     0                      
system.cpu.kern.mode_switch::kernel              1470                       # number of protection mode switches
system.cpu.kern.mode_switch::user                 871                       # number of protection mode switches
system.cpu.kern.mode_switch::idle                   0                       # number of protection mode switches
system.cpu.kern.mode_switch_good::kernel     0.592517                       # fraction of useful protection mode switches
system.cpu.kern.mode_switch_good::user              1                       # fraction of useful protection mode switches
system.cpu.kern.mode_switch_good::idle            nan                       # fraction of useful protection mode switches
system.cpu.kern.mode_switch_good::total      0.744126                       # fraction of useful protection mode switches
system.cpu.kern.mode_ticks::kernel         8036967000     67.69%     67.69% # number of ticks spent at the given mode
system.cpu.kern.mode_ticks::user           3835945000     32.31%    100.00% # number of ticks spent at the given mode
system.cpu.kern.mode_ticks::idle                    0      0.00%    100.00% # number of ticks spent at the given mode
system.cpu.kern.swap_context                      574                       # number of times the context was actually changed
system.cpu.numCycles                         23724279                       # number of cpu cycles simulated
system.cpu.numFetchSuspends                         9                       # Number of times Execute suspended instruction fetching
system.cpu.numWorkItemsCompleted                    0                       # number of work items this cpu completed
system.cpu.numWorkItemsStarted                      0                       # number of work items this cpu started
system.cpu.op_class_0::No_OpClass               85388      2.04%      2.04% # Class of committed instruction
system.cpu.op_class_0::IntAlu                 2540429     60.57%     62.61% # Class of committed instruction
system.cpu.op_class_0::IntMult                   3675      0.09%     62.69% # Class of committed instruction
system.cpu.op_class_0::IntDiv                       0      0.00%     62.69% # Class of committed instruction
system.cpu.op_class_0::FloatAdd                  8286      0.20%     62.89% # Class of committed instruction
system.cpu.op_class_0::FloatCmp                     0      0.00%     62.89% # Class of committed instruction
system.cpu.op_class_0::FloatCvt                     0      0.00%     62.89% # Class of committed instruction
system.cpu.op_class_0::FloatMult                    0      0.00%     62.89% # Class of committed instruction
system.cpu.op_class_0::FloatMultAcc                 0      0.00%     62.89% # Class of committed instruction
system.cpu.op_class_0::FloatDiv                  1593      0.04%     62.93% # Class of committed instruction
system.cpu.op_class_0::FloatMisc                    0      0.00%     62.93% # Class of committed instruction
system.cpu.op_class_0::FloatSqrt                    0      0.00%     62.93% # Class of committed instruction
system.cpu.op_class_0::SimdAdd                      0      0.00%     62.93% # Class of committed instruction
system.cpu.op_class_0::SimdAddAcc                   0      0.00%     62.93% # Class of committed instruction
system.cpu.op_class_0::SimdAlu                      0      0.00%     62.93% # Class of committed instruction
system.cpu.op_class_0::SimdCmp                      0      0.00%     62.93% # Class of committed instruction
system.cpu.op_class_0::SimdCvt                      0      0.00%     62.93% # Class of committed instruction
system.cpu.op_class_0::SimdMisc                     0      0.00%     62.93% # Class of committed instruction
system.cpu.op_class_0::SimdMult                     0      0.00%     62.93% # Class of committed instruction
system.cpu.op_class_0::SimdMultAcc                  0      0.00%     62.93% # Class of committed instruction
system.cpu.op_class_0::SimdShift                    0      0.00%     62.93% # Class of committed instruction
system.cpu.op_class_0::SimdShiftAcc                 0      0.00%     62.93% # Class of committed instruction
system.cpu.op_class_0::SimdDiv                      0      0.00%     62.93% # Class of committed instruction
system.cpu.op_class_0::SimdSqrt                     0      0.00%     62.93% # Class of committed instruction
system.cpu.op_class_0::SimdFloatAdd                 0      0.00%     62.93% # Class of committed instruction
system.cpu.op_class_0::SimdFloatAlu                 0      0.00%     62.93% # Class of committed instruction
system.cpu.op_class_0::SimdFloatCmp                 0      0.00%     62.93% # Class of committed instruction
system.cpu.op_class_0::SimdFloatCvt                 0      0.00%     62.93% # Class of committed instruction
system.cpu.op_class_0::SimdFloatDiv                 0      0.00%     62.93% # Class of committed instruction
system.cpu.op_class_0::SimdFloatMisc                0      0.00%     62.93% # Class of committed instruction
system.cpu.op_class_0::SimdFloatMult                0      0.00%     62.93% # Class of committed instruction
system.cpu.op_class_0::SimdFloatMultAcc             0      0.00%     62.93% # Class of committed instruction
system.cpu.op_class_0::SimdFloatSqrt                0      0.00%     62.93% # Class of committed instruction
system.cpu.op_class_0::SimdReduceAdd                0      0.00%     62.93% # Class of committed instruction
system.cpu.op_class_0::SimdReduceAlu                0      0.00%     62.93% # Class of committed instruction
system.cpu.op_class_0::SimdReduceCmp                0      0.00%     62.93% # Class of committed instruction
system.cpu.op_class_0::SimdFloatReduceAdd            0      0.00%     62.93% # Class of committed instruction
system.cpu.op_class_0::SimdFloatReduceCmp            0      0.00%     62.93% # Class of committed instruction
system.cpu.op_class_0::SimdAes                      0      0.00%     62.93% # Class of committed instruction
system.cpu.op_class_0::SimdAesMix                   0      0.00%     62.93% # Class of committed instruction
system.cpu.op_class_0::SimdSha1Hash                 0      0.00%     62.93% # Class of committed instruction
system.cpu.op_class_0::SimdSha1Hash2                0      0.00%     62.93% # Class of committed instruction
system.cpu.op_class_0::SimdSha256Hash               0      0.00%     62.93% # Class of committed instruction
system.cpu.op_class_0::SimdSha256Hash2              0      0.00%     62.93% # Class of committed instruction
system.cpu.op_class_0::SimdShaSigma2                0      0.00%     62.93% # Class of committed instruction
system.cpu.op_class_0::SimdShaSigma3                0      0.00%     62.93% # Class of committed instruction
system.cpu.op_class_0::SimdPredAlu                  0      0.00%     62.93% # Class of committed instruction
system.cpu.op_class_0::MemRead                 838864     20.00%     82.93% # Class of committed instruction
system.cpu.op_class_0::MemWrite                592297     14.12%     97.05% # Class of committed instruction
system.cpu.op_class_0::FloatMemRead              9988      0.24%     97.29% # Class of committed instruction
system.cpu.op_class_0::FloatMemWrite             8788      0.21%     97.50% # Class of committed instruction
system.cpu.op_class_0::IprAccess               104859      2.50%    100.00% # Class of committed instruction
system.cpu.op_class_0::InstPrefetch                 0      0.00%    100.00% # Class of committed instruction
system.cpu.op_class_0::total                  4194167                       # Class of committed instruction
system.cpu.quiesceCycles                        13474                       # Total number of cycles that CPU has spent quiesced or waiting for an interrupt
system.cpu.tickCycles                         6896459                       # Number of cycles that the object actually ticked
system.disk0.dma_read_bytes                         0                       # Number of bytes transfered via DMA reads (not PRD).
system.disk0.dma_read_full_pages                    0                       # Number of full page size DMA reads (not PRD).
system.disk0.dma_read_txs                           0                       # Number of DMA read transactions (not PRD).
system.disk0.dma_write_bytes                    12288                       # Number of bytes transfered via DMA writes.
system.disk0.dma_write_full_pages                   0                       # Number of full page size DMA writes.
system.disk0.dma_write_txs                          3                       # Number of DMA write transactions.
system.disk2.dma_read_bytes                         0                       # Number of bytes transfered via DMA reads (not PRD).
system.disk2.dma_read_full_pages                    0                       # Number of full page size DMA reads (not PRD).
system.disk2.dma_read_txs                           0                       # Number of DMA read transactions (not PRD).
system.disk2.dma_write_bytes                        0                       # Number of bytes transfered via DMA writes.
system.disk2.dma_write_full_pages                   0                       # Number of full page size DMA writes.
system.disk2.dma_write_txs                          0                       # Number of DMA write transactions.
system.membus.snoop_filter.hit_multi_requests          451                       # Number of requests hitting in the snoop filter with multiple (>1) holders of the requested data.
system.membus.snoop_filter.hit_multi_snoops            0                       # Number of snoops hitting in the snoop filter with multiple (>1) holders of the requested data.
system.membus.snoop_filter.hit_single_requests       156343                       # Number of requests hitting in the snoop filter with a single holder of the requested data.
system.membus.snoop_filter.hit_single_snoops            0                       # Number of snoops hitting in the snoop filter with a single holder of the requested data.
system.membus.snoop_filter.tot_requests        314294                       # Total number of requests made to the snoop filter.
system.membus.snoop_filter.tot_snoops               0                       # Total number of snoops made to the snoop filter.
system.tsunami.ethernet.coalescedRxDesc           nan                       # average number of RxDesc's coalesced into each post
system.tsunami.ethernet.coalescedRxIdle           nan                       # average number of RxIdle's coalesced into each post
system.tsunami.ethernet.coalescedRxOk             nan                       # average number of RxOk's coalesced into each post
system.tsunami.ethernet.coalescedRxOrn            nan                       # average number of RxOrn's coalesced into each post
system.tsunami.ethernet.coalescedSwi              nan                       # average number of Swi's coalesced into each post
system.tsunami.ethernet.coalescedTotal            nan                       # average number of interrupts coalesced into each post
system.tsunami.ethernet.coalescedTxDesc           nan                       # average number of TxDesc's coalesced into each post
system.tsunami.ethernet.coalescedTxIdle           nan                       # average number of TxIdle's coalesced into each post
system.tsunami.ethernet.coalescedTxOk             nan                       # average number of TxOk's coalesced into each post
system.tsunami.ethernet.descDMAReads                0                       # Number of descriptors the device read w/ DMA
system.tsunami.ethernet.descDMAWrites               0                       # Number of descriptors the device wrote w/ DMA
system.tsunami.ethernet.descDmaReadBytes            0                       # number of descriptor bytes read w/ DMA
system.tsunami.ethernet.descDmaWriteBytes            0                       # number of descriptor bytes write w/ DMA
system.tsunami.ethernet.droppedPackets              0                       # number of packets dropped
system.tsunami.ethernet.postedInterrupts            0                       # number of posts to CPU
system.tsunami.ethernet.postedRxDesc                0                       # number of RxDesc interrupts posted to CPU
system.tsunami.ethernet.postedRxIdle                0                       # number of rxIdle interrupts posted to CPU
system.tsunami.ethernet.postedRxOk                  0                       # number of RxOk interrupts posted to CPU
system.tsunami.ethernet.postedRxOrn                 0                       # number of RxOrn posted to CPU
system.tsunami.ethernet.postedSwi                   0                       # number of software interrupts posted to CPU
system.tsunami.ethernet.postedTxDesc                0                       # number of TxDesc interrupts posted to CPU
system.tsunami.ethernet.postedTxIdle                0                       # number of TxIdle interrupts posted to CPU
system.tsunami.ethernet.postedTxOk                  0                       # number of TxOk interrupts posted to CPU
system.tsunami.ethernet.totalRxDesc                 0                       # total number of RxDesc written to ISR
system.tsunami.ethernet.totalRxIdle                 0                       # total number of RxIdle written to ISR
system.tsunami.ethernet.totalRxOk                   0                       # total number of RxOk written to ISR
system.tsunami.ethernet.totalRxOrn                  0                       # total number of RxOrn written to ISR
system.tsunami.ethernet.totalSwi                    0                       # total number of Swi written to ISR
system.tsunami.ethernet.totalTxDesc                 0                       # total number of TxDesc written to ISR
system.tsunami.ethernet.totalTxIdle                 0                       # total number of TxIdle written to ISR
system.tsunami.ethernet.totalTxOk                   0                       # total number of TxOk written to ISR
system.bridge.pwrStateResidencyTicks::UNDEFINED 2541878721500                       # Cumulative time (in ticks) in various power states
system.voltage_domain.voltage                       1                       # Voltage in Volts
system.iocache.pwrStateResidencyTicks::UNDEFINED 2541878721500                       # Cumulative time (in ticks) in various power states
system.iocache.demand_misses::.tsunami.ide          195                       # number of demand (read+write) misses
system.iocache.demand_misses::total               195                       # number of demand (read+write) misses
system.iocache.overall_misses::.tsunami.ide          195                       # number of overall misses
system.iocache.overall_misses::total              195                       # number of overall misses
system.iocache.demand_miss_latency::.tsunami.ide     22856455                       # number of demand (read+write) miss cycles
system.iocache.demand_miss_latency::total     22856455                       # number of demand (read+write) miss cycles
system.iocache.overall_miss_latency::.tsunami.ide     22856455                       # number of overall miss cycles
system.iocache.overall_miss_latency::total     22856455                       # number of overall miss cycles
system.iocache.demand_accesses::.tsunami.ide          195                       # number of demand (read+write) accesses
system.iocache.demand_accesses::total             195                       # number of demand (read+write) accesses
system.iocache.overall_accesses::.tsunami.ide          195                       # number of overall (read+write) accesses
system.iocache.overall_accesses::total            195                       # number of overall (read+write) accesses
system.iocache.demand_miss_rate::.tsunami.ide            1                       # miss rate for demand accesses
system.iocache.demand_miss_rate::total              1                       # miss rate for demand accesses
system.iocache.overall_miss_rate::.tsunami.ide            1                       # miss rate for overall accesses
system.iocache.overall_miss_rate::total             1                       # miss rate for overall accesses
system.iocache.demand_avg_miss_latency::.tsunami.ide 117212.589744                       # average overall miss latency
system.iocache.demand_avg_miss_latency::total 117212.589744                       # average overall miss latency
system.iocache.overall_avg_miss_latency::.tsunami.ide 117212.589744                       # average overall miss latency
system.iocache.overall_avg_miss_latency::total 117212.589744                       # average overall miss latency
system.iocache.blocked_cycles::no_mshrs             0                       # number of cycles access was blocked
system.iocache.blocked_cycles::no_targets            0                       # number of cycles access was blocked
system.iocache.blocked::no_mshrs                    0                       # number of cycles access was blocked
system.iocache.blocked::no_targets                  0                       # number of cycles access was blocked
system.iocache.avg_blocked_cycles::no_mshrs          nan                       # average number of cycles each access was blocked
system.iocache.avg_blocked_cycles::no_targets          nan                       # average number of cycles each access was blocked
system.iocache.writebacks::.writebacks            176                       # number of writebacks
system.iocache.writebacks::total                  176                       # number of writebacks
system.iocache.demand_mshr_misses::.tsunami.ide          195                       # number of demand (read+write) MSHR misses
system.iocache.demand_mshr_misses::total          195                       # number of demand (read+write) MSHR misses
system.iocache.overall_mshr_misses::.tsunami.ide          195                       # number of overall MSHR misses
system.iocache.overall_mshr_misses::total          195                       # number of overall MSHR misses
system.iocache.demand_mshr_miss_latency::.tsunami.ide     13093482                       # number of demand (read+write) MSHR miss cycles
system.iocache.demand_mshr_miss_latency::total     13093482                       # number of demand (read+write) MSHR miss cycles
system.iocache.overall_mshr_miss_latency::.tsunami.ide     13093482                       # number of overall MSHR miss cycles
system.iocache.overall_mshr_miss_latency::total     13093482                       # number of overall MSHR miss cycles
system.iocache.demand_mshr_miss_rate::.tsunami.ide            1                       # mshr miss rate for demand accesses
system.iocache.demand_mshr_miss_rate::total            1                       # mshr miss rate for demand accesses
system.iocache.overall_mshr_miss_rate::.tsunami.ide            1                       # mshr miss rate for overall accesses
system.iocache.overall_mshr_miss_rate::total            1                       # mshr miss rate for overall accesses
system.iocache.demand_avg_mshr_miss_latency::.tsunami.ide 67146.061538                       # average overall mshr miss latency
system.iocache.demand_avg_mshr_miss_latency::total 67146.061538                       # average overall mshr miss latency
system.iocache.overall_avg_mshr_miss_latency::.tsunami.ide 67146.061538                       # average overall mshr miss latency
system.iocache.overall_avg_mshr_miss_latency::total 67146.061538                       # average overall mshr miss latency
system.iocache.replacements                       179                       # number of replacements
system.iocache.ReadReq_misses::.tsunami.ide            3                       # number of ReadReq misses
system.iocache.ReadReq_misses::total                3                       # number of ReadReq misses
system.iocache.ReadReq_miss_latency::.tsunami.ide       349497                       # number of ReadReq miss cycles
system.iocache.ReadReq_miss_latency::total       349497                       # number of ReadReq miss cycles
system.iocache.ReadReq_accesses::.tsunami.ide            3                       # number of ReadReq accesses(hits+misses)
system.iocache.ReadReq_accesses::total              3                       # number of ReadReq accesses(hits+misses)
system.iocache.ReadReq_miss_rate::.tsunami.ide            1                       # miss rate for ReadReq accesses
system.iocache.ReadReq_miss_rate::total             1                       # miss rate for ReadReq accesses
system.iocache.ReadReq_avg_miss_latency::.tsunami.ide       116499                       # average ReadReq miss latency
system.iocache.ReadReq_avg_miss_latency::total       116499                       # average ReadReq miss latency
system.iocache.ReadReq_mshr_misses::.tsunami.ide            3                       # number of ReadReq MSHR misses
system.iocache.ReadReq_mshr_misses::total            3                       # number of ReadReq MSHR misses
system.iocache.ReadReq_mshr_miss_latency::.tsunami.ide       199497                       # number of ReadReq MSHR miss cycles
system.iocache.ReadReq_mshr_miss_latency::total       199497                       # number of ReadReq MSHR miss cycles
system.iocache.ReadReq_mshr_miss_rate::.tsunami.ide            1                       # mshr miss rate for ReadReq accesses
system.iocache.ReadReq_mshr_miss_rate::total            1                       # mshr miss rate for ReadReq accesses
system.iocache.ReadReq_avg_mshr_miss_latency::.tsunami.ide        66499                       # average ReadReq mshr miss latency
system.iocache.ReadReq_avg_mshr_miss_latency::total        66499                       # average ReadReq mshr miss latency
system.iocache.WriteLineReq_misses::.tsunami.ide          192                       # number of WriteLineReq misses
system.iocache.WriteLineReq_misses::total          192                       # number of WriteLineReq misses
system.iocache.WriteLineReq_miss_latency::.tsunami.ide     22506958                       # number of WriteLineReq miss cycles
system.iocache.WriteLineReq_miss_latency::total     22506958                       # number of WriteLineReq miss cycles
system.iocache.WriteLineReq_accesses::.tsunami.ide          192                       # number of WriteLineReq accesses(hits+misses)
system.iocache.WriteLineReq_accesses::total          192                       # number of WriteLineReq accesses(hits+misses)
system.iocache.WriteLineReq_miss_rate::.tsunami.ide            1                       # miss rate for WriteLineReq accesses
system.iocache.WriteLineReq_miss_rate::total            1                       # miss rate for WriteLineReq accesses
system.iocache.WriteLineReq_avg_miss_latency::.tsunami.ide 117223.739583                       # average WriteLineReq miss latency
system.iocache.WriteLineReq_avg_miss_latency::total 117223.739583                       # average WriteLineReq miss latency
system.iocache.WriteLineReq_mshr_misses::.tsunami.ide          192                       # number of WriteLineReq MSHR misses
system.iocache.WriteLineReq_mshr_misses::total          192                       # number of WriteLineReq MSHR misses
system.iocache.WriteLineReq_mshr_miss_latency::.tsunami.ide     12893985                       # number of WriteLineReq MSHR miss cycles
system.iocache.WriteLineReq_mshr_miss_latency::total     12893985                       # number of WriteLineReq MSHR miss cycles
system.iocache.WriteLineReq_mshr_miss_rate::.tsunami.ide            1                       # mshr miss rate for WriteLineReq accesses
system.iocache.WriteLineReq_mshr_miss_rate::total            1                       # mshr miss rate for WriteLineReq accesses
system.iocache.WriteLineReq_avg_mshr_miss_latency::.tsunami.ide 67156.171875                       # average WriteLineReq mshr miss latency
system.iocache.WriteLineReq_avg_mshr_miss_latency::total 67156.171875                       # average WriteLineReq mshr miss latency
system.iocache.tags.pwrStateResidencyTicks::UNDEFINED 2541878721500                       # Cumulative time (in ticks) in various power states
system.iocache.tags.tagsinuse                3.268403                       # Cycle average of tags in use
system.iocache.tags.total_refs                    179                       # Total number of references to valid blocks.
system.iocache.tags.sampled_refs                  179                       # Sample count of references to valid blocks.
system.iocache.tags.avg_refs                        1                       # Average number of references to valid blocks.
system.iocache.tags.warmup_cycle         2539453127000                       # Cycle when the warmup percentage was hit.
system.iocache.tags.occ_blocks::.tsunami.ide     3.268403                       # Average occupied blocks per requestor
system.iocache.tags.occ_percent::.tsunami.ide     0.204275                       # Average percentage of cache occupancy
system.iocache.tags.occ_percent::total       0.204275                       # Average percentage of cache occupancy
system.iocache.tags.occ_task_id_blocks::1023           16                       # Occupied blocks per task id
system.iocache.tags.age_task_id_blocks_1023::3           16                       # Occupied blocks per task id
system.iocache.tags.occ_task_id_percent::1023            1                       # Percentage of cache occupancy per task id
system.iocache.tags.tag_accesses                 1755                       # Number of tag accesses
system.iocache.tags.data_accesses                1755                       # Number of data accesses
system.membus.pwrStateResidencyTicks::UNDEFINED 2541878721500                       # Cumulative time (in ticks) in various power states
system.membus.trans_dist::ReadReq                 108                       # Transaction distribution
system.membus.trans_dist::ReadResp             128870                       # Transaction distribution
system.membus.trans_dist::WriteReq                 99                       # Transaction distribution
system.membus.trans_dist::WriteResp                99                       # Transaction distribution
system.membus.trans_dist::WritebackDirty        34859                       # Transaction distribution
system.membus.trans_dist::WritebackClean        87209                       # Transaction distribution
system.membus.trans_dist::CleanEvict            34255                       # Transaction distribution
system.membus.trans_dist::UpgradeReq               16                       # Transaction distribution
system.membus.trans_dist::ReadExReq             28999                       # Transaction distribution
system.membus.trans_dist::ReadExResp            28999                       # Transaction distribution
system.membus.trans_dist::ReadCleanReq          87799                       # Transaction distribution
system.membus.trans_dist::ReadSharedReq         40965                       # Transaction distribution
system.membus.trans_dist::BadAddressError            2                       # Transaction distribution
system.membus.trans_dist::InvalidateReq           192                       # Transaction distribution
system.membus.pkt_count_system.iocache.mem_side::system.mem_ctrls.port          374                       # Packet count per connected master and slave (bytes)
system.membus.pkt_count_system.iocache.mem_side::total          374                       # Packet count per connected master and slave (bytes)
system.membus.pkt_count_system.cpu.icache.mem_side::system.mem_ctrls.port       262741                       # Packet count per connected master and slave (bytes)
system.membus.pkt_count_system.cpu.icache.mem_side::total       262741                       # Packet count per connected master and slave (bytes)
system.membus.pkt_count_system.cpu.dcache.mem_side::system.bridge.slave          414                       # Packet count per connected master and slave (bytes)
system.membus.pkt_count_system.cpu.dcache.mem_side::system.mem_ctrls.port       208869                       # Packet count per connected master and slave (bytes)
system.membus.pkt_count_system.cpu.dcache.mem_side::system.membus.badaddr_responder.pio            4                       # Packet count per connected master and slave (bytes)
system.membus.pkt_count_system.cpu.dcache.mem_side::total       209287                       # Packet count per connected master and slave (bytes)
system.membus.pkt_count::total                 472402                       # Packet count per connected master and slave (bytes)
system.membus.pkt_size_system.iocache.mem_side::system.mem_ctrls.port        11264                       # Cumulative packet size per connected master and slave (bytes)
system.membus.pkt_size_system.iocache.mem_side::total        11264                       # Cumulative packet size per connected master and slave (bytes)
system.membus.pkt_size_system.cpu.icache.mem_side::system.mem_ctrls.port     11196288                       # Cumulative packet size per connected master and slave (bytes)
system.membus.pkt_size_system.cpu.icache.mem_side::total     11196288                       # Cumulative packet size per connected master and slave (bytes)
system.membus.pkt_size_system.cpu.dcache.mem_side::system.bridge.slave          433                       # Cumulative packet size per connected master and slave (bytes)
system.membus.pkt_size_system.cpu.dcache.mem_side::system.mem_ctrls.port      6697088                       # Cumulative packet size per connected master and slave (bytes)
system.membus.pkt_size_system.cpu.dcache.mem_side::total      6697521                       # Cumulative packet size per connected master and slave (bytes)
system.membus.pkt_size::total                17905073                       # Cumulative packet size per connected master and slave (bytes)
system.membus.snoops                               69                       # Total snoops (count)
system.membus.snoopTraffic                       4416                       # Total snoop traffic (bytes)
system.membus.snoop_fanout::samples            158178                       # Request fanout histogram
system.membus.snoop_fanout::mean             0.002858                       # Request fanout histogram
system.membus.snoop_fanout::stdev            0.053380                       # Request fanout histogram
system.membus.snoop_fanout::underflows              0      0.00%      0.00% # Request fanout histogram
system.membus.snoop_fanout::0                  157726     99.71%     99.71% # Request fanout histogram
system.membus.snoop_fanout::1                     452      0.29%    100.00% # Request fanout histogram
system.membus.snoop_fanout::2                       0      0.00%    100.00% # Request fanout histogram
system.membus.snoop_fanout::3                       0      0.00%    100.00% # Request fanout histogram
system.membus.snoop_fanout::overflows               0      0.00%    100.00% # Request fanout histogram
system.membus.snoop_fanout::min_value               0                       # Request fanout histogram
system.membus.snoop_fanout::max_value               1                       # Request fanout histogram
system.membus.snoop_fanout::total              158178                       # Request fanout histogram
system.membus.reqLayer0.occupancy              351000                       # Layer occupancy (ticks)
system.membus.reqLayer0.utilization               0.0                       # Layer utilization (%)
system.membus.reqLayer1.occupancy           825247030                       # Layer occupancy (ticks)
system.membus.reqLayer1.utilization               7.0                       # Layer utilization (%)
system.membus.reqLayer2.occupancy                3000                       # Layer occupancy (ticks)
system.membus.reqLayer2.utilization               0.0                       # Layer utilization (%)
system.membus.respLayer1.occupancy              17997                       # Layer occupancy (ticks)
system.membus.respLayer1.utilization              0.0                       # Layer utilization (%)
system.membus.respLayer3.occupancy          376379250                       # Layer occupancy (ticks)
system.membus.respLayer3.utilization              3.2                       # Layer utilization (%)
system.membus.badaddr_responder.pwrStateResidencyTicks::UNDEFINED 2541878721500                       # Cumulative time (in ticks) in various power states
system.membus.respLayer2.occupancy          465561250                       # Layer occupancy (ticks)
system.membus.respLayer2.utilization              3.9                       # Layer utilization (%)
system.clk_domain.clock                          1000                       # Clock period in ticks
system.tsunami.fake_uart1.pwrStateResidencyTicks::UNDEFINED 2541878721500                       # Cumulative time (in ticks) in various power states
system.tsunami.fake_uart2.pwrStateResidencyTicks::UNDEFINED 2541878721500                       # Cumulative time (in ticks) in various power states
system.tsunami.fake_uart3.pwrStateResidencyTicks::UNDEFINED 2541878721500                       # Cumulative time (in ticks) in various power states
system.tsunami.fake_uart4.pwrStateResidencyTicks::UNDEFINED 2541878721500                       # Cumulative time (in ticks) in various power states
system.tsunami.fake_ppc.pwrStateResidencyTicks::UNDEFINED 2541878721500                       # Cumulative time (in ticks) in various power states
system.tsunami.cchip.pwrStateResidencyTicks::UNDEFINED 2541878721500                       # Cumulative time (in ticks) in various power states
system.tsunami.io.pwrStateResidencyTicks::UNDEFINED 2541878721500                       # Cumulative time (in ticks) in various power states
system.tsunami.pchip.pwrStateResidencyTicks::UNDEFINED 2541878721500                       # Cumulative time (in ticks) in various power states
system.tsunami.fake_ata1.pwrStateResidencyTicks::UNDEFINED 2541878721500                       # Cumulative time (in ticks) in various power states
system.tsunami.fake_ata0.pwrStateResidencyTicks::UNDEFINED 2541878721500                       # Cumulative time (in ticks) in various power states
system.tsunami.backdoor.pwrStateResidencyTicks::UNDEFINED 2541878721500                       # Cumulative time (in ticks) in various power states
system.tsunami.fake_pnp_read3.pwrStateResidencyTicks::UNDEFINED 2541878721500                       # Cumulative time (in ticks) in various power states
system.tsunami.fake_pnp_read2.pwrStateResidencyTicks::UNDEFINED 2541878721500                       # Cumulative time (in ticks) in various power states
system.tsunami.fake_pnp_read1.pwrStateResidencyTicks::UNDEFINED 2541878721500                       # Cumulative time (in ticks) in various power states
system.tsunami.fake_pnp_read0.pwrStateResidencyTicks::UNDEFINED 2541878721500                       # Cumulative time (in ticks) in various power states
system.tsunami.fake_pnp_read7.pwrStateResidencyTicks::UNDEFINED 2541878721500                       # Cumulative time (in ticks) in various power states
system.tsunami.fake_pnp_read6.pwrStateResidencyTicks::UNDEFINED 2541878721500                       # Cumulative time (in ticks) in various power states
system.tsunami.fake_pnp_read5.pwrStateResidencyTicks::UNDEFINED 2541878721500                       # Cumulative time (in ticks) in various power states
system.tsunami.fake_pnp_read4.pwrStateResidencyTicks::UNDEFINED 2541878721500                       # Cumulative time (in ticks) in various power states
system.tsunami.fake_pnp_write.pwrStateResidencyTicks::UNDEFINED 2541878721500                       # Cumulative time (in ticks) in various power states
system.tsunami.fb.pwrStateResidencyTicks::UNDEFINED 2541878721500                       # Cumulative time (in ticks) in various power states
system.tsunami.fake_pnp_addr.pwrStateResidencyTicks::UNDEFINED 2541878721500                       # Cumulative time (in ticks) in various power states
system.tsunami.fake_OROM.pwrStateResidencyTicks::UNDEFINED 2541878721500                       # Cumulative time (in ticks) in various power states
system.tsunami.uart.pwrStateResidencyTicks::UNDEFINED 2541878721500                       # Cumulative time (in ticks) in various power states
system.tsunami.fake_sm_chip.pwrStateResidencyTicks::UNDEFINED 2541878721500                       # Cumulative time (in ticks) in various power states
system.tsunami.ethernet.pwrStateResidencyTicks::UNDEFINED 2541878721500                       # Cumulative time (in ticks) in various power states
system.tsunami.ide.pwrStateResidencyTicks::UNDEFINED 2541878721500                       # Cumulative time (in ticks) in various power states
system.cpu_voltage_domain.voltage                   1                       # Voltage in Volts
system.mem_ctrls.pwrStateResidencyTicks::UNDEFINED 2541878721500                       # Cumulative time (in ticks) in various power states
system.mem_ctrls.bytes_read::.cpu.inst        5614912                       # Number of bytes read from this memory
system.mem_ctrls.bytes_read::.cpu.data        4477376                       # Number of bytes read from this memory
system.mem_ctrls.bytes_read::total           10092288                       # Number of bytes read from this memory
system.mem_ctrls.bytes_inst_read::.cpu.inst      5614912                       # Number of instructions bytes read from this memory
system.mem_ctrls.bytes_inst_read::total       5614912                       # Number of instructions bytes read from this memory
system.mem_ctrls.bytes_written::.writebacks      2230976                       # Number of bytes written to this memory
system.mem_ctrls.bytes_written::total         2230976                       # Number of bytes written to this memory
system.mem_ctrls.num_reads::.cpu.inst           87733                       # Number of read requests responded to by this memory
system.mem_ctrls.num_reads::.cpu.data           69959                       # Number of read requests responded to by this memory
system.mem_ctrls.num_reads::total              157692                       # Number of read requests responded to by this memory
system.mem_ctrls.num_writes::.writebacks        34859                       # Number of write requests responded to by this memory
system.mem_ctrls.num_writes::total              34859                       # Number of write requests responded to by this memory
system.mem_ctrls.bw_read::.cpu.inst         473078644                       # Total read bandwidth from this memory (bytes/s)
system.mem_ctrls.bw_read::.cpu.data         377236717                       # Total read bandwidth from this memory (bytes/s)
system.mem_ctrls.bw_read::total             850315361                       # Total read bandwidth from this memory (bytes/s)
system.mem_ctrls.bw_inst_read::.cpu.inst    473078644                       # Instruction read bandwidth from this memory (bytes/s)
system.mem_ctrls.bw_inst_read::total        473078644                       # Instruction read bandwidth from this memory (bytes/s)
system.mem_ctrls.bw_write::.writebacks      187968592                       # Write bandwidth from this memory (bytes/s)
system.mem_ctrls.bw_write::total            187968592                       # Write bandwidth from this memory (bytes/s)
system.mem_ctrls.bw_total::.writebacks      187968592                       # Total bandwidth to/from this memory (bytes/s)
system.mem_ctrls.bw_total::.cpu.inst        473078644                       # Total bandwidth to/from this memory (bytes/s)
system.mem_ctrls.bw_total::.cpu.data        377236717                       # Total bandwidth to/from this memory (bytes/s)
system.mem_ctrls.bw_total::total           1038283952                       # Total bandwidth to/from this memory (bytes/s)
system.mem_ctrls.avgPriority_.writebacks::samples    119697.00                       # Average QoS priority value for accepted requests
system.mem_ctrls.avgPriority_.cpu.inst::samples     77945.00                       # Average QoS priority value for accepted requests
system.mem_ctrls.avgPriority_.cpu.data::samples     69449.00                       # Average QoS priority value for accepted requests
system.mem_ctrls.priorityMinLatency      0.000000018750                       # per QoS priority minimum request to response latency (s)
system.mem_ctrls.priorityMaxLatency      0.000156696750                       # per QoS priority maximum request to response latency (s)
system.mem_ctrls.numReadWriteTurnArounds         7367                       # Number of turnarounds from READ to WRITE
system.mem_ctrls.numWriteReadTurnArounds         7367                       # Number of turnarounds from WRITE to READ
system.mem_ctrls.numStayReadState              408927                       # Number of times bus staying in READ state
system.mem_ctrls.numStayWriteState             112403                       # Number of times bus staying in WRITE state
system.mem_ctrls.readReqs                      157692                       # Number of read requests accepted
system.mem_ctrls.writeReqs                     121844                       # Number of write requests accepted
system.mem_ctrls.readBursts                    157692                       # Number of DRAM read bursts, including those serviced by the write queue
system.mem_ctrls.writeBursts                   121844                       # Number of DRAM write bursts, including those merged in the write queue
system.mem_ctrls.servicedByWrQ                  10298                       # Number of DRAM read bursts serviced by the write queue
system.mem_ctrls.mergedWrBursts                  2147                       # Number of DRAM write bursts merged with an existing one
system.mem_ctrls.neitherReadNorWriteReqs            0                       # Number of requests that are neither read nor write
system.mem_ctrls.perBankRdBursts::0              8839                       # Per bank write bursts
system.mem_ctrls.perBankRdBursts::1              6643                       # Per bank write bursts
system.mem_ctrls.perBankRdBursts::2              9994                       # Per bank write bursts
system.mem_ctrls.perBankRdBursts::3              7226                       # Per bank write bursts
system.mem_ctrls.perBankRdBursts::4              8552                       # Per bank write bursts
system.mem_ctrls.perBankRdBursts::5             10067                       # Per bank write bursts
system.mem_ctrls.perBankRdBursts::6              8490                       # Per bank write bursts
system.mem_ctrls.perBankRdBursts::7              8762                       # Per bank write bursts
system.mem_ctrls.perBankRdBursts::8             11851                       # Per bank write bursts
system.mem_ctrls.perBankRdBursts::9              9320                       # Per bank write bursts
system.mem_ctrls.perBankRdBursts::10            10638                       # Per bank write bursts
system.mem_ctrls.perBankRdBursts::11            12079                       # Per bank write bursts
system.mem_ctrls.perBankRdBursts::12             8866                       # Per bank write bursts
system.mem_ctrls.perBankRdBursts::13            13615                       # Per bank write bursts
system.mem_ctrls.perBankRdBursts::14             5561                       # Per bank write bursts
system.mem_ctrls.perBankRdBursts::15             6891                       # Per bank write bursts
system.mem_ctrls.perBankWrBursts::0              7130                       # Per bank write bursts
system.mem_ctrls.perBankWrBursts::1              4467                       # Per bank write bursts
system.mem_ctrls.perBankWrBursts::2              8634                       # Per bank write bursts
system.mem_ctrls.perBankWrBursts::3              8041                       # Per bank write bursts
system.mem_ctrls.perBankWrBursts::4              7756                       # Per bank write bursts
system.mem_ctrls.perBankWrBursts::5              9825                       # Per bank write bursts
system.mem_ctrls.perBankWrBursts::6              7262                       # Per bank write bursts
system.mem_ctrls.perBankWrBursts::7              6954                       # Per bank write bursts
system.mem_ctrls.perBankWrBursts::8             10658                       # Per bank write bursts
system.mem_ctrls.perBankWrBursts::9              8457                       # Per bank write bursts
system.mem_ctrls.perBankWrBursts::10             7972                       # Per bank write bursts
system.mem_ctrls.perBankWrBursts::11             8075                       # Per bank write bursts
system.mem_ctrls.perBankWrBursts::12             5465                       # Per bank write bursts
system.mem_ctrls.perBankWrBursts::13            10033                       # Per bank write bursts
system.mem_ctrls.perBankWrBursts::14             3197                       # Per bank write bursts
system.mem_ctrls.perBankWrBursts::15             5745                       # Per bank write bursts
system.mem_ctrls.avgRdQLen                       1.09                       # Average read queue length when enqueuing
system.mem_ctrls.avgWrQLen                      25.71                       # Average write queue length when enqueuing
system.mem_ctrls.totQLat                   2013811250                       # Total ticks spent queuing
system.mem_ctrls.totBusLat                  736970000                       # Total ticks spent in databus transfers
system.mem_ctrls.totMemAccLat              4777448750                       # Total ticks spent from burst creation until serviced by the DRAM
system.mem_ctrls.avgQLat                     13662.78                       # Average queueing delay per DRAM burst
system.mem_ctrls.avgBusLat                    5000.00                       # Average bus latency per DRAM burst
system.mem_ctrls.avgMemAccLat                32412.78                       # Average memory access latency per DRAM burst
system.mem_ctrls.numRdRetry                         0                       # Number of times read queue was full causing retry
system.mem_ctrls.numWrRetry                         0                       # Number of times write queue was full causing retry
system.mem_ctrls.readRowHits                   104554                       # Number of row buffer hits during reads
system.mem_ctrls.writeRowHits                   80749                       # Number of row buffer hits during writes
system.mem_ctrls.readRowHitRate                 70.94                       # Row buffer hit rate for reads
system.mem_ctrls.writeRowHitRate                67.46                       # Row buffer hit rate for writes
system.mem_ctrls.readPktSize::0                     0                       # Read request sizes (log2)
system.mem_ctrls.readPktSize::1                     0                       # Read request sizes (log2)
system.mem_ctrls.readPktSize::2                     0                       # Read request sizes (log2)
system.mem_ctrls.readPktSize::3                     0                       # Read request sizes (log2)
system.mem_ctrls.readPktSize::4                     0                       # Read request sizes (log2)
system.mem_ctrls.readPktSize::5                     0                       # Read request sizes (log2)
system.mem_ctrls.readPktSize::6                157692                       # Read request sizes (log2)
system.mem_ctrls.writePktSize::0                    0                       # Write request sizes (log2)
system.mem_ctrls.writePktSize::1                    0                       # Write request sizes (log2)
system.mem_ctrls.writePktSize::2                    0                       # Write request sizes (log2)
system.mem_ctrls.writePktSize::3                    0                       # Write request sizes (log2)
system.mem_ctrls.writePktSize::4                    0                       # Write request sizes (log2)
system.mem_ctrls.writePktSize::5                    0                       # Write request sizes (log2)
system.mem_ctrls.writePktSize::6               121844                       # Write request sizes (log2)
system.mem_ctrls.rdQLenPdf::0                  134917                       # What read queue length does an incoming req see
system.mem_ctrls.rdQLenPdf::1                   12159                       # What read queue length does an incoming req see
system.mem_ctrls.rdQLenPdf::2                     318                       # What read queue length does an incoming req see
system.mem_ctrls.rdQLenPdf::3                       0                       # What read queue length does an incoming req see
system.mem_ctrls.rdQLenPdf::4                       0                       # What read queue length does an incoming req see
system.mem_ctrls.rdQLenPdf::5                       0                       # What read queue length does an incoming req see
system.mem_ctrls.rdQLenPdf::6                       0                       # What read queue length does an incoming req see
system.mem_ctrls.rdQLenPdf::7                       0                       # What read queue length does an incoming req see
system.mem_ctrls.rdQLenPdf::8                       0                       # What read queue length does an incoming req see
system.mem_ctrls.rdQLenPdf::9                       0                       # What read queue length does an incoming req see
system.mem_ctrls.rdQLenPdf::10                      0                       # What read queue length does an incoming req see
system.mem_ctrls.rdQLenPdf::11                      0                       # What read queue length does an incoming req see
system.mem_ctrls.rdQLenPdf::12                      0                       # What read queue length does an incoming req see
system.mem_ctrls.rdQLenPdf::13                      0                       # What read queue length does an incoming req see
system.mem_ctrls.rdQLenPdf::14                      0                       # What read queue length does an incoming req see
system.mem_ctrls.rdQLenPdf::15                      0                       # What read queue length does an incoming req see
system.mem_ctrls.rdQLenPdf::16                      0                       # What read queue length does an incoming req see
system.mem_ctrls.rdQLenPdf::17                      0                       # What read queue length does an incoming req see
system.mem_ctrls.rdQLenPdf::18                      0                       # What read queue length does an incoming req see
system.mem_ctrls.rdQLenPdf::19                      0                       # What read queue length does an incoming req see
system.mem_ctrls.rdQLenPdf::20                      0                       # What read queue length does an incoming req see
system.mem_ctrls.rdQLenPdf::21                      0                       # What read queue length does an incoming req see
system.mem_ctrls.rdQLenPdf::22                      0                       # What read queue length does an incoming req see
system.mem_ctrls.rdQLenPdf::23                      0                       # What read queue length does an incoming req see
system.mem_ctrls.rdQLenPdf::24                      0                       # What read queue length does an incoming req see
system.mem_ctrls.rdQLenPdf::25                      0                       # What read queue length does an incoming req see
system.mem_ctrls.rdQLenPdf::26                      0                       # What read queue length does an incoming req see
system.mem_ctrls.rdQLenPdf::27                      0                       # What read queue length does an incoming req see
system.mem_ctrls.rdQLenPdf::28                      0                       # What read queue length does an incoming req see
system.mem_ctrls.rdQLenPdf::29                      0                       # What read queue length does an incoming req see
system.mem_ctrls.rdQLenPdf::30                      0                       # What read queue length does an incoming req see
system.mem_ctrls.rdQLenPdf::31                      0                       # What read queue length does an incoming req see
system.mem_ctrls.wrQLenPdf::0                       1                       # What write queue length does an incoming req see
system.mem_ctrls.wrQLenPdf::1                       1                       # What write queue length does an incoming req see
system.mem_ctrls.wrQLenPdf::2                       1                       # What write queue length does an incoming req see
system.mem_ctrls.wrQLenPdf::3                       1                       # What write queue length does an incoming req see
system.mem_ctrls.wrQLenPdf::4                       1                       # What write queue length does an incoming req see
system.mem_ctrls.wrQLenPdf::5                       1                       # What write queue length does an incoming req see
system.mem_ctrls.wrQLenPdf::6                       1                       # What write queue length does an incoming req see
system.mem_ctrls.wrQLenPdf::7                       1                       # What write queue length does an incoming req see
system.mem_ctrls.wrQLenPdf::8                       1                       # What write queue length does an incoming req see
system.mem_ctrls.wrQLenPdf::9                       1                       # What write queue length does an incoming req see
system.mem_ctrls.wrQLenPdf::10                      1                       # What write queue length does an incoming req see
system.mem_ctrls.wrQLenPdf::11                      1                       # What write queue length does an incoming req see
system.mem_ctrls.wrQLenPdf::12                      1                       # What write queue length does an incoming req see
system.mem_ctrls.wrQLenPdf::13                      1                       # What write queue length does an incoming req see
system.mem_ctrls.wrQLenPdf::14                      1                       # What write queue length does an incoming req see
system.mem_ctrls.wrQLenPdf::15                    666                       # What write queue length does an incoming req see
system.mem_ctrls.wrQLenPdf::16                    767                       # What write queue length does an incoming req see
system.mem_ctrls.wrQLenPdf::17                   6787                       # What write queue length does an incoming req see
system.mem_ctrls.wrQLenPdf::18                   7398                       # What write queue length does an incoming req see
system.mem_ctrls.wrQLenPdf::19                   7478                       # What write queue length does an incoming req see
system.mem_ctrls.wrQLenPdf::20                   7433                       # What write queue length does an incoming req see
system.mem_ctrls.wrQLenPdf::21                   7443                       # What write queue length does an incoming req see
system.mem_ctrls.wrQLenPdf::22                   7527                       # What write queue length does an incoming req see
system.mem_ctrls.wrQLenPdf::23                   7463                       # What write queue length does an incoming req see
system.mem_ctrls.wrQLenPdf::24                   7452                       # What write queue length does an incoming req see
system.mem_ctrls.wrQLenPdf::25                   7433                       # What write queue length does an incoming req see
system.mem_ctrls.wrQLenPdf::26                   7460                       # What write queue length does an incoming req see
system.mem_ctrls.wrQLenPdf::27                   7415                       # What write queue length does an incoming req see
system.mem_ctrls.wrQLenPdf::28                   7409                       # What write queue length does an incoming req see
system.mem_ctrls.wrQLenPdf::29                   7402                       # What write queue length does an incoming req see
system.mem_ctrls.wrQLenPdf::30                   7372                       # What write queue length does an incoming req see
system.mem_ctrls.wrQLenPdf::31                   7372                       # What write queue length does an incoming req see
system.mem_ctrls.wrQLenPdf::32                   7366                       # What write queue length does an incoming req see
system.mem_ctrls.wrQLenPdf::33                     13                       # What write queue length does an incoming req see
system.mem_ctrls.wrQLenPdf::34                      4                       # What write queue length does an incoming req see
system.mem_ctrls.wrQLenPdf::35                      2                       # What write queue length does an incoming req see
system.mem_ctrls.wrQLenPdf::36                      3                       # What write queue length does an incoming req see
system.mem_ctrls.wrQLenPdf::37                      2                       # What write queue length does an incoming req see
system.mem_ctrls.wrQLenPdf::38                      2                       # What write queue length does an incoming req see
system.mem_ctrls.wrQLenPdf::39                      2                       # What write queue length does an incoming req see
system.mem_ctrls.wrQLenPdf::40                      1                       # What write queue length does an incoming req see
system.mem_ctrls.wrQLenPdf::41                      1                       # What write queue length does an incoming req see
system.mem_ctrls.wrQLenPdf::42                      1                       # What write queue length does an incoming req see
system.mem_ctrls.wrQLenPdf::43                      1                       # What write queue length does an incoming req see
system.mem_ctrls.wrQLenPdf::44                      1                       # What write queue length does an incoming req see
system.mem_ctrls.wrQLenPdf::45                      1                       # What write queue length does an incoming req see
system.mem_ctrls.wrQLenPdf::46                      1                       # What write queue length does an incoming req see
system.mem_ctrls.wrQLenPdf::47                      1                       # What write queue length does an incoming req see
system.mem_ctrls.wrQLenPdf::48                      1                       # What write queue length does an incoming req see
system.mem_ctrls.wrQLenPdf::49                      1                       # What write queue length does an incoming req see
system.mem_ctrls.wrQLenPdf::50                      1                       # What write queue length does an incoming req see
system.mem_ctrls.wrQLenPdf::51                      0                       # What write queue length does an incoming req see
system.mem_ctrls.wrQLenPdf::52                      0                       # What write queue length does an incoming req see
system.mem_ctrls.wrQLenPdf::53                      0                       # What write queue length does an incoming req see
system.mem_ctrls.wrQLenPdf::54                      0                       # What write queue length does an incoming req see
system.mem_ctrls.wrQLenPdf::55                      0                       # What write queue length does an incoming req see
system.mem_ctrls.wrQLenPdf::56                      0                       # What write queue length does an incoming req see
system.mem_ctrls.wrQLenPdf::57                      0                       # What write queue length does an incoming req see
system.mem_ctrls.wrQLenPdf::58                      0                       # What write queue length does an incoming req see
system.mem_ctrls.wrQLenPdf::59                      0                       # What write queue length does an incoming req see
system.mem_ctrls.wrQLenPdf::60                      0                       # What write queue length does an incoming req see
system.mem_ctrls.wrQLenPdf::61                      0                       # What write queue length does an incoming req see
system.mem_ctrls.wrQLenPdf::62                      0                       # What write queue length does an incoming req see
system.mem_ctrls.wrQLenPdf::63                      0                       # What write queue length does an incoming req see
system.mem_ctrls.bytesPerActivate::samples        81752                       # Bytes accessed per row activation
system.mem_ctrls.bytesPerActivate::mean    209.050592                       # Bytes accessed per row activation
system.mem_ctrls.bytesPerActivate::gmean   140.589897                       # Bytes accessed per row activation
system.mem_ctrls.bytesPerActivate::stdev   225.275316                       # Bytes accessed per row activation
system.mem_ctrls.bytesPerActivate::0-127        34504     42.21%     42.21% # Bytes accessed per row activation
system.mem_ctrls.bytesPerActivate::128-255        24345     29.78%     71.98% # Bytes accessed per row activation
system.mem_ctrls.bytesPerActivate::256-383        10030     12.27%     84.25% # Bytes accessed per row activation
system.mem_ctrls.bytesPerActivate::384-511         4713      5.76%     90.02% # Bytes accessed per row activation
system.mem_ctrls.bytesPerActivate::512-639         2379      2.91%     92.93% # Bytes accessed per row activation
system.mem_ctrls.bytesPerActivate::640-767         1425      1.74%     94.67% # Bytes accessed per row activation
system.mem_ctrls.bytesPerActivate::768-895          939      1.15%     95.82% # Bytes accessed per row activation
system.mem_ctrls.bytesPerActivate::896-1023          641      0.78%     96.60% # Bytes accessed per row activation
system.mem_ctrls.bytesPerActivate::1024-1151         2776      3.40%    100.00% # Bytes accessed per row activation
system.mem_ctrls.bytesPerActivate::total        81752                       # Bytes accessed per row activation
system.mem_ctrls.rdPerTurnAround::samples         7367                       # Reads before turning the bus around for writes
system.mem_ctrls.rdPerTurnAround::mean      20.006108                       # Reads before turning the bus around for writes
system.mem_ctrls.rdPerTurnAround::gmean     18.423628                       # Reads before turning the bus around for writes
system.mem_ctrls.rdPerTurnAround::stdev     12.524398                       # Reads before turning the bus around for writes
system.mem_ctrls.rdPerTurnAround::0-15           1289     17.50%     17.50% # Reads before turning the bus around for writes
system.mem_ctrls.rdPerTurnAround::16-31          5602     76.04%     93.54% # Reads before turning the bus around for writes
system.mem_ctrls.rdPerTurnAround::32-47           286      3.88%     97.42% # Reads before turning the bus around for writes
system.mem_ctrls.rdPerTurnAround::48-63            89      1.21%     98.63% # Reads before turning the bus around for writes
system.mem_ctrls.rdPerTurnAround::64-79            38      0.52%     99.14% # Reads before turning the bus around for writes
system.mem_ctrls.rdPerTurnAround::80-95            24      0.33%     99.47% # Reads before turning the bus around for writes
system.mem_ctrls.rdPerTurnAround::96-111           10      0.14%     99.61% # Reads before turning the bus around for writes
system.mem_ctrls.rdPerTurnAround::112-127           10      0.14%     99.74% # Reads before turning the bus around for writes
system.mem_ctrls.rdPerTurnAround::128-143           11      0.15%     99.89% # Reads before turning the bus around for writes
system.mem_ctrls.rdPerTurnAround::144-159            4      0.05%     99.95% # Reads before turning the bus around for writes
system.mem_ctrls.rdPerTurnAround::160-175            1      0.01%     99.96% # Reads before turning the bus around for writes
system.mem_ctrls.rdPerTurnAround::176-191            2      0.03%     99.99% # Reads before turning the bus around for writes
system.mem_ctrls.rdPerTurnAround::400-415            1      0.01%    100.00% # Reads before turning the bus around for writes
system.mem_ctrls.rdPerTurnAround::total          7367                       # Reads before turning the bus around for writes
system.mem_ctrls.wrPerTurnAround::samples         7367                       # Writes before turning the bus around for reads
system.mem_ctrls.wrPerTurnAround::mean      16.244197                       # Writes before turning the bus around for reads
system.mem_ctrls.wrPerTurnAround::gmean     16.228558                       # Writes before turning the bus around for reads
system.mem_ctrls.wrPerTurnAround::stdev      0.745125                       # Writes before turning the bus around for reads
system.mem_ctrls.wrPerTurnAround::16             6568     89.15%     89.15% # Writes before turning the bus around for reads
system.mem_ctrls.wrPerTurnAround::17               94      1.28%     90.43% # Writes before turning the bus around for reads
system.mem_ctrls.wrPerTurnAround::18              477      6.47%     96.91% # Writes before turning the bus around for reads
system.mem_ctrls.wrPerTurnAround::19              164      2.23%     99.13% # Writes before turning the bus around for reads
system.mem_ctrls.wrPerTurnAround::20               61      0.83%     99.96% # Writes before turning the bus around for reads
system.mem_ctrls.wrPerTurnAround::21                3      0.04%    100.00% # Writes before turning the bus around for reads
system.mem_ctrls.wrPerTurnAround::total          7367                       # Writes before turning the bus around for reads
system.mem_ctrls.bytesReadDRAM                9433216                       # Total number of bytes read from DRAM
system.mem_ctrls.bytesReadWrQ                  659072                       # Total number of bytes read from write queue
system.mem_ctrls.bytesWritten                 7658944                       # Total number of bytes written to DRAM
system.mem_ctrls.bytesReadSys                10092288                       # Total read bytes from the system interface side
system.mem_ctrls.bytesWrittenSys              7798016                       # Total written bytes from the system interface side
system.mem_ctrls.avgRdBW                       794.79                       # Average DRAM read bandwidth in MiByte/s
system.mem_ctrls.avgWrBW                       645.30                       # Average achieved write bandwidth in MiByte/s
system.mem_ctrls.avgRdBWSys                    850.32                       # Average system read bandwidth in MiByte/s
system.mem_ctrls.avgWrBWSys                    657.01                       # Average system write bandwidth in MiByte/s
system.mem_ctrls.peakBW                      12800.00                       # Theoretical peak bandwidth in MiByte/s
system.mem_ctrls.busUtil                        11.25                       # Data bus utilization in percentage
system.mem_ctrls.busUtilRead                     6.21                       # Data bus utilization in percentage for reads
system.mem_ctrls.busUtilWrite                    5.04                       # Data bus utilization in percentage for writes
system.mem_ctrls.totGap                   11868871500                       # Total gap between requests
system.mem_ctrls.avgGap                      42459.19                       # Average gap between requests
system.mem_ctrls.masterReadBytes::.cpu.inst      4988480                       # Per-master bytes read from memory
system.mem_ctrls.masterReadBytes::.cpu.data      4444736                       # Per-master bytes read from memory
system.mem_ctrls.masterWriteBytes::.writebacks      7658944                       # Per-master bytes write to memory
system.mem_ctrls.masterReadRate::.cpu.inst 420299259.159028232098                       # Per-master bytes read from memory rate (Bytes/sec)
system.mem_ctrls.masterReadRate::.cpu.data 374486666.871965527534                       # Per-master bytes read from memory rate (Bytes/sec)
system.mem_ctrls.masterWriteRate::.writebacks 645296460.873950481415                       # Per-master bytes write to memory rate (Bytes/sec)
[...]
system.cpu.icache.ReadReq_mshr_misses::total       560599                       # number of ReadReq MSHR misses
system.cpu.icache.ReadReq_mshr_miss_latency::.cpu.inst  33427973500                       # number of ReadReq MSHR miss cycles
system.cpu.icache.ReadReq_mshr_miss_latency::total  33427973500                       # number of ReadReq MSHR miss cycles
system.cpu.icache.ReadReq_mshr_miss_rate::.cpu.inst     0.006118                       # mshr miss rate for ReadReq accesses
system.cpu.icache.ReadReq_mshr_miss_rate::total     0.006118                       # mshr miss rate for ReadReq accesses
system.cpu.icache.ReadReq_avg_mshr_miss_latency::.cpu.inst 59629.028057                       # average ReadReq mshr miss latency
system.cpu.icache.ReadReq_avg_mshr_miss_latency::total 59629.028057                       # average ReadReq mshr miss latency
system.cpu.icache.tags.pwrStateResidencyTicks::UNDEFINED 334762677500                       # Cumulative time (in ticks) in various power states
system.cpu.icache.tags.tagsinuse                  512                       # Cycle average of tags in use
system.cpu.icache.tags.total_refs            91814994                       # Total number of references to valid blocks.
system.cpu.icache.tags.sampled_refs            561112                       # Sample count of references to valid blocks.
system.cpu.icache.tags.avg_refs            163.630423                       # Average number of references to valid blocks.
system.cpu.icache.tags.warmup_cycle                 0                       # Cycle when the warmup percentage was hit.
system.cpu.icache.tags.occ_blocks::.cpu.inst          512                       # Average occupied blocks per requestor
system.cpu.icache.tags.occ_percent::.cpu.inst            1                       # Average percentage of cache occupancy
system.cpu.icache.tags.occ_percent::total            1                       # Average percentage of cache occupancy
system.cpu.icache.tags.occ_task_id_blocks::1024          512                       # Occupied blocks per task id
system.cpu.icache.tags.age_task_id_blocks_1024::2          333                       # Occupied blocks per task id
system.cpu.icache.tags.age_task_id_blocks_1024::3          148                       # Occupied blocks per task id
system.cpu.icache.tags.age_task_id_blocks_1024::4           31                       # Occupied blocks per task id
system.cpu.icache.tags.occ_task_id_percent::1024            1                       # Percentage of cache occupancy per task id
system.cpu.icache.tags.tag_accesses         183817418                       # Number of tag accesses
system.cpu.icache.tags.data_accesses        183817418                       # Number of data accesses
system.cpu.dcache.pwrStateResidencyTicks::UNDEFINED 334762677500                       # Cumulative time (in ticks) in various power states
system.cpu.dcache.demand_hits::.cpu.data    116128120                       # number of demand (read+write) hits
system.cpu.dcache.demand_hits::total        116128120                       # number of demand (read+write) hits
system.cpu.dcache.overall_hits::.cpu.data    116128120                       # number of overall hits
system.cpu.dcache.overall_hits::total       116128120                       # number of overall hits
system.cpu.dcache.demand_misses::.cpu.data      1709456                       # number of demand (read+write) misses
system.cpu.dcache.demand_misses::total        1709456                       # number of demand (read+write) misses
system.cpu.dcache.overall_misses::.cpu.data      1709456                       # number of overall misses
system.cpu.dcache.overall_misses::total       1709456                       # number of overall misses
system.cpu.dcache.demand_miss_latency::.cpu.data 104644648000                       # number of demand (read+write) miss cycles
system.cpu.dcache.demand_miss_latency::total 104644648000                       # number of demand (read+write) miss cycles
system.cpu.dcache.overall_miss_latency::.cpu.data 104644648000                       # number of overall miss cycles
system.cpu.dcache.overall_miss_latency::total 104644648000                       # number of overall miss cycles
system.cpu.dcache.demand_accesses::.cpu.data    117837576                       # number of demand (read+write) accesses
system.cpu.dcache.demand_accesses::total    117837576                       # number of demand (read+write) accesses
system.cpu.dcache.overall_accesses::.cpu.data    117837576                       # number of overall (read+write) accesses
system.cpu.dcache.overall_accesses::total    117837576                       # number of overall (read+write) accesses
system.cpu.dcache.demand_miss_rate::.cpu.data     0.014507                       # miss rate for demand accesses
system.cpu.dcache.demand_miss_rate::total     0.014507                       # miss rate for demand accesses
system.cpu.dcache.overall_miss_rate::.cpu.data     0.014507                       # miss rate for overall accesses
system.cpu.dcache.overall_miss_rate::total     0.014507                       # miss rate for overall accesses
system.cpu.dcache.demand_avg_miss_latency::.cpu.data 61215.174886                       # average overall miss latency
system.cpu.dcache.demand_avg_miss_latency::total 61215.174886                       # average overall miss latency
system.cpu.dcache.overall_avg_miss_latency::.cpu.data 61215.174886                       # average overall miss latency
system.cpu.dcache.overall_avg_miss_latency::total 61215.174886                       # average overall miss latency
system.cpu.dcache.blocked_cycles::no_mshrs            0                       # number of cycles access was blocked
system.cpu.dcache.blocked_cycles::no_targets            0                       # number of cycles access was blocked
system.cpu.dcache.blocked::no_mshrs                 0                       # number of cycles access was blocked
system.cpu.dcache.blocked::no_targets               0                       # number of cycles access was blocked
system.cpu.dcache.avg_blocked_cycles::no_mshrs          nan                       # average number of cycles each access was blocked
system.cpu.dcache.avg_blocked_cycles::no_targets          nan                       # average number of cycles each access was blocked
system.cpu.dcache.writebacks::.writebacks       724648                       # number of writebacks
system.cpu.dcache.writebacks::total            724648                       # number of writebacks
system.cpu.dcache.demand_mshr_hits::.cpu.data       524185                       # number of demand (read+write) MSHR hits
system.cpu.dcache.demand_mshr_hits::total       524185                       # number of demand (read+write) MSHR hits
system.cpu.dcache.overall_mshr_hits::.cpu.data       524185                       # number of overall MSHR hits
system.cpu.dcache.overall_mshr_hits::total       524185                       # number of overall MSHR hits
system.cpu.dcache.demand_mshr_misses::.cpu.data      1185271                       # number of demand (read+write) MSHR misses
system.cpu.dcache.demand_mshr_misses::total      1185271                       # number of demand (read+write) MSHR misses
system.cpu.dcache.overall_mshr_misses::.cpu.data      1185271                       # number of overall MSHR misses
system.cpu.dcache.overall_mshr_misses::total      1185271                       # number of overall MSHR misses
system.cpu.dcache.overall_mshr_uncacheable_misses::.cpu.data          342                       # number of overall MSHR uncacheable misses
system.cpu.dcache.overall_mshr_uncacheable_misses::total          342                       # number of overall MSHR uncacheable misses
system.cpu.dcache.demand_mshr_miss_latency::.cpu.data  71094484000                       # number of demand (read+write) MSHR miss cycles
system.cpu.dcache.demand_mshr_miss_latency::total  71094484000                       # number of demand (read+write) MSHR miss cycles
system.cpu.dcache.overall_mshr_miss_latency::.cpu.data  71094484000                       # number of overall MSHR miss cycles
system.cpu.dcache.overall_mshr_miss_latency::total  71094484000                       # number of overall MSHR miss cycles
system.cpu.dcache.demand_mshr_miss_rate::.cpu.data     0.010059                       # mshr miss rate for demand accesses
system.cpu.dcache.demand_mshr_miss_rate::total     0.010059                       # mshr miss rate for demand accesses
system.cpu.dcache.overall_mshr_miss_rate::.cpu.data     0.010059                       # mshr miss rate for overall accesses
system.cpu.dcache.overall_mshr_miss_rate::total     0.010059                       # mshr miss rate for overall accesses
system.cpu.dcache.demand_avg_mshr_miss_latency::.cpu.data 59981.627830                       # average overall mshr miss latency
system.cpu.dcache.demand_avg_mshr_miss_latency::total 59981.627830                       # average overall mshr miss latency
system.cpu.dcache.overall_avg_mshr_miss_latency::.cpu.data 59981.627830                       # average overall mshr miss latency
system.cpu.dcache.overall_avg_mshr_miss_latency::total 59981.627830                       # average overall mshr miss latency
system.cpu.dcache.replacements                1190009                       # number of replacements
system.cpu.dcache.ReadReq_hits::.cpu.data     90531051                       # number of ReadReq hits
system.cpu.dcache.ReadReq_hits::total        90531051                       # number of ReadReq hits
system.cpu.dcache.ReadReq_misses::.cpu.data       860155                       # number of ReadReq misses
system.cpu.dcache.ReadReq_misses::total        860155                       # number of ReadReq misses
system.cpu.dcache.ReadReq_miss_latency::.cpu.data  53130544000                       # number of ReadReq miss cycles
system.cpu.dcache.ReadReq_miss_latency::total  53130544000                       # number of ReadReq miss cycles
system.cpu.dcache.ReadReq_accesses::.cpu.data     91391206                       # number of ReadReq accesses(hits+misses)
system.cpu.dcache.ReadReq_accesses::total     91391206                       # number of ReadReq accesses(hits+misses)
system.cpu.dcache.ReadReq_miss_rate::.cpu.data     0.009412                       # miss rate for ReadReq accesses
system.cpu.dcache.ReadReq_miss_rate::total     0.009412                       # miss rate for ReadReq accesses
system.cpu.dcache.ReadReq_avg_miss_latency::.cpu.data 61768.569618                       # average ReadReq miss latency
system.cpu.dcache.ReadReq_avg_miss_latency::total 61768.569618                       # average ReadReq miss latency
system.cpu.dcache.ReadReq_mshr_hits::.cpu.data       107047                       # number of ReadReq MSHR hits
system.cpu.dcache.ReadReq_mshr_hits::total       107047                       # number of ReadReq MSHR hits
system.cpu.dcache.ReadReq_mshr_misses::.cpu.data       753108                       # number of ReadReq MSHR misses
system.cpu.dcache.ReadReq_mshr_misses::total       753108                       # number of ReadReq MSHR misses
system.cpu.dcache.ReadReq_mshr_miss_latency::.cpu.data  45841412000                       # number of ReadReq MSHR miss cycles
system.cpu.dcache.ReadReq_mshr_miss_latency::total  45841412000                       # number of ReadReq MSHR miss cycles
system.cpu.dcache.ReadReq_mshr_miss_rate::.cpu.data     0.008240                       # mshr miss rate for ReadReq accesses
system.cpu.dcache.ReadReq_mshr_miss_rate::total     0.008240                       # mshr miss rate for ReadReq accesses
system.cpu.dcache.ReadReq_avg_mshr_miss_latency::.cpu.data 60869.638883                       # average ReadReq mshr miss latency
system.cpu.dcache.ReadReq_avg_mshr_miss_latency::total 60869.638883                       # average ReadReq mshr miss latency
system.cpu.dcache.WriteReq_hits::.cpu.data     25597069                       # number of WriteReq hits
system.cpu.dcache.WriteReq_hits::total       25597069                       # number of WriteReq hits
system.cpu.dcache.WriteReq_misses::.cpu.data       849301                       # number of WriteReq misses
system.cpu.dcache.WriteReq_misses::total       849301                       # number of WriteReq misses
system.cpu.dcache.WriteReq_miss_latency::.cpu.data  51514104000                       # number of WriteReq miss cycles
system.cpu.dcache.WriteReq_miss_latency::total  51514104000                       # number of WriteReq miss cycles
system.cpu.dcache.WriteReq_accesses::.cpu.data     26446370                       # number of WriteReq accesses(hits+misses)
system.cpu.dcache.WriteReq_accesses::total     26446370                       # number of WriteReq accesses(hits+misses)
system.cpu.dcache.WriteReq_miss_rate::.cpu.data     0.032114                       # miss rate for WriteReq accesses
system.cpu.dcache.WriteReq_miss_rate::total     0.032114                       # miss rate for WriteReq accesses
system.cpu.dcache.WriteReq_avg_miss_latency::.cpu.data 60654.707813                       # average WriteReq miss latency
system.cpu.dcache.WriteReq_avg_miss_latency::total 60654.707813                       # average WriteReq miss latency
system.cpu.dcache.WriteReq_mshr_hits::.cpu.data       417138                       # number of WriteReq MSHR hits
system.cpu.dcache.WriteReq_mshr_hits::total       417138                       # number of WriteReq MSHR hits
system.cpu.dcache.WriteReq_mshr_misses::.cpu.data       432163                       # number of WriteReq MSHR misses
system.cpu.dcache.WriteReq_mshr_misses::total       432163                       # number of WriteReq MSHR misses
system.cpu.dcache.WriteReq_mshr_uncacheable::.cpu.data          342                       # number of WriteReq MSHR uncacheable
system.cpu.dcache.WriteReq_mshr_uncacheable::total          342                       # number of WriteReq MSHR uncacheable
system.cpu.dcache.WriteReq_mshr_miss_latency::.cpu.data  25253072000                       # number of WriteReq MSHR miss cycles
system.cpu.dcache.WriteReq_mshr_miss_latency::total  25253072000                       # number of WriteReq MSHR miss cycles
system.cpu.dcache.WriteReq_mshr_miss_rate::.cpu.data     0.016341                       # mshr miss rate for WriteReq accesses
system.cpu.dcache.WriteReq_mshr_miss_rate::total     0.016341                       # mshr miss rate for WriteReq accesses
system.cpu.dcache.WriteReq_avg_mshr_miss_latency::.cpu.data 58434.137120                       # average WriteReq mshr miss latency
system.cpu.dcache.WriteReq_avg_mshr_miss_latency::total 58434.137120                       # average WriteReq mshr miss latency
system.cpu.dcache.LoadLockedReq_hits::.cpu.data        78792                       # number of LoadLockedReq hits
system.cpu.dcache.LoadLockedReq_hits::total        78792                       # number of LoadLockedReq hits
system.cpu.dcache.LoadLockedReq_misses::.cpu.data         4740                       # number of LoadLockedReq misses
system.cpu.dcache.LoadLockedReq_misses::total         4740                       # number of LoadLockedReq misses
system.cpu.dcache.LoadLockedReq_miss_latency::.cpu.data    355946500                       # number of LoadLockedReq miss cycles
system.cpu.dcache.LoadLockedReq_miss_latency::total    355946500                       # number of LoadLockedReq miss cycles
system.cpu.dcache.LoadLockedReq_accesses::.cpu.data        83532                       # number of LoadLockedReq accesses(hits+misses)
system.cpu.dcache.LoadLockedReq_accesses::total        83532                       # number of LoadLockedReq accesses(hits+misses)
system.cpu.dcache.LoadLockedReq_miss_rate::.cpu.data     0.056745                       # miss rate for LoadLockedReq accesses
system.cpu.dcache.LoadLockedReq_miss_rate::total     0.056745                       # miss rate for LoadLockedReq accesses
system.cpu.dcache.LoadLockedReq_avg_miss_latency::.cpu.data 75094.198312                       # average LoadLockedReq miss latency
system.cpu.dcache.LoadLockedReq_avg_miss_latency::total 75094.198312                       # average LoadLockedReq miss latency
system.cpu.dcache.LoadLockedReq_mshr_misses::.cpu.data         4740                       # number of LoadLockedReq MSHR misses
system.cpu.dcache.LoadLockedReq_mshr_misses::total         4740                       # number of LoadLockedReq MSHR misses
system.cpu.dcache.LoadLockedReq_mshr_miss_latency::.cpu.data    351206500                       # number of LoadLockedReq MSHR miss cycles
system.cpu.dcache.LoadLockedReq_mshr_miss_latency::total    351206500                       # number of LoadLockedReq MSHR miss cycles
system.cpu.dcache.LoadLockedReq_mshr_miss_rate::.cpu.data     0.056745                       # mshr miss rate for LoadLockedReq accesses
system.cpu.dcache.LoadLockedReq_mshr_miss_rate::total     0.056745                       # mshr miss rate for LoadLockedReq accesses
system.cpu.dcache.LoadLockedReq_avg_mshr_miss_latency::.cpu.data 74094.198312                       # average LoadLockedReq mshr miss latency
system.cpu.dcache.LoadLockedReq_avg_mshr_miss_latency::total 74094.198312                       # average LoadLockedReq mshr miss latency
system.cpu.dcache.StoreCondReq_hits::.cpu.data        83452                       # number of StoreCondReq hits
system.cpu.dcache.StoreCondReq_hits::total        83452                       # number of StoreCondReq hits
system.cpu.dcache.StoreCondReq_accesses::.cpu.data        83452                       # number of StoreCondReq accesses(hits+misses)
system.cpu.dcache.StoreCondReq_accesses::total        83452                       # number of StoreCondReq accesses(hits+misses)
system.cpu.dcache.tags.pwrStateResidencyTicks::UNDEFINED 334762677500                       # Cumulative time (in ticks) in various power states
system.cpu.dcache.tags.tagsinuse                 1024                       # Cycle average of tags in use
system.cpu.dcache.tags.total_refs           117892361                       # Total number of references to valid blocks.
system.cpu.dcache.tags.sampled_refs           1191033                       # Sample count of references to valid blocks.
system.cpu.dcache.tags.avg_refs             98.983287                       # Average number of references to valid blocks.
system.cpu.dcache.tags.warmup_cycle                 0                       # Cycle when the warmup percentage was hit.
system.cpu.dcache.tags.occ_blocks::.cpu.data         1024                       # Average occupied blocks per requestor
system.cpu.dcache.tags.occ_percent::.cpu.data            1                       # Average percentage of cache occupancy
system.cpu.dcache.tags.occ_percent::total            1                       # Average percentage of cache occupancy
system.cpu.dcache.tags.occ_task_id_blocks::1024         1024                       # Occupied blocks per task id
system.cpu.dcache.tags.age_task_id_blocks_1024::0           42                       # Occupied blocks per task id
system.cpu.dcache.tags.age_task_id_blocks_1024::1          131                       # Occupied blocks per task id
system.cpu.dcache.tags.age_task_id_blocks_1024::2          773                       # Occupied blocks per task id
system.cpu.dcache.tags.age_task_id_blocks_1024::3           78                       # Occupied blocks per task id
system.cpu.dcache.tags.occ_task_id_percent::1024            1                       # Percentage of cache occupancy per task id
system.cpu.dcache.tags.tag_accesses         237199129                       # Number of tag accesses
system.cpu.dcache.tags.data_accesses        237199129                       # Number of data accesses

---------- End Simulation Statistics   ----------
