
---------- Begin Simulation Statistics ----------
final_tick                               2541836278500                       # Number of ticks from beginning of simulation (restored from checkpoints and never reset)
host_inst_rate                                 218436                       # Simulator instruction rate (inst/s)
host_mem_usage                                 741764                       # Number of bytes of host memory used
host_op_rate                                   218435                       # Simulator op (including micro ops) rate (op/s)
host_seconds                                    19.20                       # Real time elapsed on the host
host_tick_rate                              615863509                       # Simulator tick rate (ticks/s)
sim_freq                                 1000000000000                       # Frequency of simulated ticks
sim_insts                                     4194604                       # Number of instructions simulated
sim_ops                                       4194604                       # Number of ops (including micro ops) simulated
sim_seconds                                  0.011826                       # Number of seconds simulated
sim_ticks                                 11826433500                       # Number of ticks simulated
system.cpu.branchPred.BTBCorrect                    0                       # Number of correct BTB predictions (this stat may not work properly.
system.cpu.branchPred.BTBHitPct             44.686817                       # BTB Hit Percentage
system.cpu.branchPred.BTBHits                  378496                       # Number of BTB hits
system.cpu.branchPred.BTBLookups               846997                       # Number of BTB lookups
system.cpu.branchPred.RASInCorrect               2411                       # Number of incorrect RAS predictions.
system.cpu.branchPred.condIncorrect             75421                       # Number of conditional branches incorrect
system.cpu.branchPred.condPredicted            803438                       # Number of conditional branches predicted
system.cpu.branchPred.indirectHits              52505                       # Number of indirect target hits.
system.cpu.branchPred.indirectLookups          278652                       # Number of indirect predictor lookups.
system.cpu.branchPred.indirectMisses           226147                       # Number of indirect misses.
system.cpu.branchPred.lookups                  975547                       # Number of BP lookups
system.cpu.branchPred.usedRAS                   64027                       # Number of times the RAS was used to get a target.
system.cpu.branchPredindirectMispredicted        26581                       # Number of mispredicted indirect branches.
system.cpu.committedInsts                     4194604                       # Number of instructions committed
system.cpu.committedOps                       4194604                       # Number of ops (including micro ops) committed
system.cpu.cpi                               5.635633                       # CPI: cycles per instruction
system.cpu.discardedOps                        189205                       # Number of ops (including micro ops) which were discarded before commit
system.cpu.dtb.data_accesses                   607330                       # DTB accesses
system.cpu.dtb.data_acv                           131                       # DTB access violations
system.cpu.dtb.data_hits                      1451344                       # DTB hits
system.cpu.dtb.data_misses                       7669                       # DTB misses
system.cpu.dtb.fetch_accesses                       0                       # ITB accesses
system.cpu.dtb.fetch_acv                            0                       # ITB acv
system.cpu.dtb.fetch_hits                           0                       # ITB hits
system.cpu.dtb.fetch_misses                         0                       # ITB misses
system.cpu.dtb.read_accesses                   405752                       # DTB read accesses
system.cpu.dtb.read_acv                            43                       # DTB read access violations
system.cpu.dtb.read_hits                       848798                       # DTB read hits
system.cpu.dtb.read_misses                       6881                       # DTB read misses
system.cpu.dtb.write_accesses                  201578                       # DTB write accesses
system.cpu.dtb.write_acv                           88                       # DTB write access violations
system.cpu.dtb.write_hits                      602546                       # DTB write hits
system.cpu.dtb.write_misses                       788                       # DTB write misses
system.cpu.fetch2.amo_instructions                  0                       # Number of memory atomic instructions successfully decoded
system.cpu.fetch2.fp_instructions               18017                       # Number of floating point instructions successfully decoded
system.cpu.fetch2.int_instructions            3372586                       # Number of integer instructions successfully decoded
system.cpu.fetch2.load_instructions           1027573                       # Number of memory load instructions successfully decoded
system.cpu.fetch2.store_instructions           658855                       # Number of memory store instructions successfully decoded
system.cpu.fetch2.vec_instructions                  0                       # Number of SIMD instructions successfully decoded
system.cpu.idleCycles                        16741692                       # Total number of cycles that the object has spent stopped
system.cpu.ipc                               0.177442                       # IPC: instructions per cycle
system.cpu.itb.data_accesses                        0                       # DTB accesses
system.cpu.itb.data_acv                             0                       # DTB access violations
system.cpu.itb.data_hits                            0                       # DTB hits
system.cpu.itb.data_misses                          0                       # DTB misses
system.cpu.itb.fetch_accesses                  955356                       # ITB accesses
system.cpu.itb.fetch_acv                          542                       # ITB acv
system.cpu.itb.fetch_hits                      948713                       # ITB hits
system.cpu.itb.fetch_misses                      6643                       # ITB misses
system.cpu.itb.read_accesses                        0                       # DTB read accesses
system.cpu.itb.read_acv                             0                       # DTB read access violations
system.cpu.itb.read_hits                            0                       # DTB read hits
system.cpu.itb.read_misses                          0                       # DTB read misses
system.cpu.itb.write_accesses                       0                       # DTB write accesses
system.cpu.itb.write_acv                            0                       # DTB write access violations
system.cpu.itb.write_hits                           0                       # DTB write hits
system.cpu.itb.write_misses                         0                       # DTB write misses
system.cpu.kern.callpal::swpctx                   574      9.51%      9.51% # number of callpals executed
system.cpu.kern.callpal::tbi                       25      0.41%      9.92% # number of callpals executed
system.cpu.kern.callpal::swpipl                  4174     69.14%     79.06% # number of callpals executed
system.cpu.kern.callpal::rdps                      48      0.80%     79.86% # number of callpals executed
system.cpu.kern.callpal::wrusp                      4      0.07%     79.92% # number of callpals executed
system.cpu.kern.callpal::rdusp                      3      0.05%     79.97% # number of callpals executed
system.cpu.kern.callpal::rti                      896     14.84%     94.82% # number of callpals executed
system.cpu.kern.callpal::callsys                  235      3.89%     98.71% # number of callpals executed
system.cpu.kern.callpal::imb                       78      1.29%    100.00% # number of callpals executed
system.cpu.kern.callpal::total                   6037                       # number of callpals executed
system.cpu.kern.inst.arm                            0                       # number of arm instructions executed
system.cpu.kern.inst.hwrei                      14380                       # number of hwrei instructions executed
system.cpu.kern.inst.quiesce                        9                       # number of quiesce instructions executed
system.cpu.kern.ipl_count::0                     2412     47.41%     47.41% # number of times we switched to this ipl
system.cpu.kern.ipl_count::21                       5      0.10%     47.51% # number of times we switched to this ipl
system.cpu.kern.ipl_count::22                      12      0.24%     47.75% # number of times we switched to this ipl
system.cpu.kern.ipl_count::31                    2658     52.25%    100.00% # number of times we switched to this ipl
system.cpu.kern.ipl_count::total                 5087                       # number of times we switched to this ipl
system.cpu.kern.ipl_good::0                      2399     49.82%     49.82% # number of times we switched to this ipl from a different ipl
system.cpu.kern.ipl_good::21                        5      0.10%     49.93% # number of times we switched to this ipl from a different ipl
system.cpu.kern.ipl_good::22                       12      0.25%     50.18% # number of times we switched to this ipl from a different ipl
system.cpu.kern.ipl_good::31                     2399     49.82%    100.00% # number of times we switched to this ipl from a different ipl
system.cpu.kern.ipl_good::total                  4815                       # number of times we switched to this ipl from a different ipl
system.cpu.kern.ipl_ticks::0              10916751500     92.27%     92.27% # number of cycles we spent at this ipl
system.cpu.kern.ipl_ticks::21                 9118000      0.08%     92.35% # number of cycles we spent at this ipl
system.cpu.kern.ipl_ticks::22                17767000      0.15%     92.50% # number of cycles we spent at this ipl
system.cpu.kern.ipl_ticks::31               887129500      7.50%    100.00% # number of cycles we spent at this ipl
system.cpu.kern.ipl_ticks::total          11830766000                       # number of cycles we spent at this ipl
system.cpu.kern.ipl_used::0                  0.994610                       # fraction of swpipl calls that actually changed the ipl
system.cpu.kern.ipl_used::21                        1                       # fraction of swpipl calls that actually changed the ipl
system.cpu.kern.ipl_used::22                        1                       # fraction of swpipl calls that actually changed the ipl
system.cpu.kern.ipl_used::31                 0.902558                       # fraction of swpipl calls that actually changed the ipl
system.cpu.kern.ipl_used::total              0.946530                       # fraction of swpipl calls that actually changed the ipl
system.cpu.kern.mode_good::kernel                 869                      
system.cpu.kern.mode_good::user                   869                      
system.cpu.kern.mode_good::idle                     0                      
system.cpu.kern.mode_switch::kernel              1470                       # number of protection mode switches
system.cpu.kern.mode_switch::user                 869                       # number of protection mode switches
system.cpu.kern.mode_switch::idle                   0                       # number of protection mode switches
system.cpu.kern.mode_switch_good::kernel     0.591156                       # fraction of useful protection mode switches
system.cpu.kern.mode_switch_good::user              1                       # fraction of useful protection mode switches
system.cpu.kern.mode_switch_good::idle            nan                       # fraction of useful protection mode switches
system.cpu.kern.mode_switch_good::total      0.743053                       # fraction of useful protection mode switches
system.cpu.kern.mode_ticks::kernel         7994653000     67.58%     67.58% # number of ticks spent at the given mode
system.cpu.kern.mode_ticks::user           3836113000     32.42%    100.00% # number of ticks spent at the given mode
system.cpu.kern.mode_ticks::idle                    0      0.00%    100.00% # number of ticks spent at the given mode
system.cpu.kern.swap_context                      574                       # number of times the context was actually changed
system.cpu.numCycles                         23639250                       # number of cpu cycles simulated
system.cpu.numFetchSuspends                         9                       # Number of times Execute suspended instruction fetching
system.cpu.numWorkItemsCompleted                    0                       # number of work items this cpu completed
system.cpu.numWorkItemsStarted                      0                       # number of work items this cpu started
system.cpu.op_class_0::No_OpClass               85422      2.04%      2.04% # Class of committed instruction
system.cpu.op_class_0::IntAlu                 2540626     60.57%     62.61% # Class of committed instruction
system.cpu.op_class_0::IntMult                   3673      0.09%     62.69% # Class of committed instruction
system.cpu.op_class_0::IntDiv                       0      0.00%     62.69% # Class of committed instruction
system.cpu.op_class_0::FloatAdd                  8286      0.20%     62.89% # Class of committed instruction
system.cpu.op_class_0::FloatCmp                     0      0.00%     62.89% # Class of committed instruction
system.cpu.op_class_0::FloatCvt                     0      0.00%     62.89% # Class of committed instruction
system.cpu.op_class_0::FloatMult                    0      0.00%     62.89% # Class of committed instruction
system.cpu.op_class_0::FloatMultAcc                 0      0.00%     62.89% # Class of committed instruction
system.cpu.op_class_0::FloatDiv                  1593      0.04%     62.93% # Class of committed instruction
system.cpu.op_class_0::FloatMisc                    0      0.00%     62.93% # Class of committed instruction
system.cpu.op_class_0::FloatSqrt                    0      0.00%     62.93% # Class of committed instruction
system.cpu.op_class_0::SimdAdd                      0      0.00%     62.93% # Class of committed instruction
system.cpu.op_class_0::SimdAddAcc                   0      0.00%     62.93% # Class of committed instruction
system.cpu.op_class_0::SimdAlu                      0      0.00%     62.93% # Class of committed instruction
system.cpu.op_class_0::SimdCmp                      0      0.00%     62.93% # Class of committed instruction
system.cpu.op_class_0::SimdCvt                      0      0.00%     62.93% # Class of committed instruction
system.cpu.op_class_0::SimdMisc                     0      0.00%     62.93% # Class of committed instruction
system.cpu.op_class_0::SimdMult                     0      0.00%     62.93% # Class of committed instruction
system.cpu.op_class_0::SimdMultAcc                  0      0.00%     62.93% # Class of committed instruction
system.cpu.op_class_0::SimdShift                    0      0.00%     62.93% # Class of committed instruction
system.cpu.op_class_0::SimdShiftAcc                 0      0.00%     62.93% # Class of committed instruction
system.cpu.op_class_0::SimdDiv                      0      0.00%     62.93% # Class of committed instruction
system.cpu.op_class_0::SimdSqrt                     0      0.00%     62.93% # Class of committed instruction
system.cpu.op_class_0::SimdFloatAdd                 0      0.00%     62.93% # Class of committed instruction
system.cpu.op_class_0::SimdFloatAlu                 0      0.00%     62.93% # Class of committed instruction
system.cpu.op_class_0::SimdFloatCmp                 0      0.00%     62.93% # Class of committed instruction
system.cpu.op_class_0::SimdFloatCvt                 0      0.00%     62.93% # Class of committed instruction
system.cpu.op_class_0::SimdFloatDiv                 0      0.00%     62.93% # Class of committed instruction
system.cpu.op_class_0::SimdFloatMisc                0      0.00%     62.93% # Class of committed instruction
system.cpu.op_class_0::SimdFloatMult                0      0.00%     62.93% # Class of committed instruction
system.cpu.op_class_0::SimdFloatMultAcc             0      0.00%     62.93% # Class of committed instruction
system.cpu.op_class_0::SimdFloatSqrt                0      0.00%     62.93% # Class of committed instruction
system.cpu.op_class_0::SimdReduceAdd                0      0.00%     62.93% # Class of committed instruction
system.cpu.op_class_0::SimdReduceAlu                0      0.00%     62.93% # Class of committed instruction
system.cpu.op_class_0::SimdReduceCmp                0      0.00%     62.93% # Class of committed instruction
system.cpu.op_class_0::SimdFloatReduceAdd            0      0.00%     62.93% # Class of committed instruction
system.cpu.op_class_0::SimdFloatReduceCmp            0      0.00%     62.93% # Class of committed instruction
system.cpu.op_class_0::SimdAes                      0      0.00%     62.93% # Class of committed instruction
system.cpu.op_class_0::SimdAesMix                   0      0.00%     62.93% # Class of committed instruction
system.cpu.op_class_0::SimdSha1Hash                 0      0.00%     62.93% # Class of committed instruction
system.cpu.op_class_0::SimdSha1Hash2                0      0.00%     62.93% # Class of committed instruction
system.cpu.op_class_0::SimdSha256Hash               0      0.00%     62.93% # Class of committed instruction
system.cpu.op_class_0::SimdSha256Hash2              0      0.00%     62.93% # Class of committed instruction
system.cpu.op_class_0::SimdShaSigma2                0      0.00%     62.93% # Class of committed instruction
system.cpu.op_class_0::SimdShaSigma3                0      0.00%     62.93% # Class of committed instruction
system.cpu.op_class_0::SimdPredAlu                  0      0.00%     62.93% # Class of committed instruction
system.cpu.op_class_0::MemRead                 839076     20.00%     82.93% # Class of committed instruction
system.cpu.op_class_0::MemWrite                592485     14.12%     97.06% # Class of committed instruction
system.cpu.op_class_0::FloatMemRead              9988      0.24%     97.30% # Class of committed instruction
system.cpu.op_class_0::FloatMemWrite             8788      0.21%     97.50% # Class of committed instruction
system.cpu.op_class_0::IprAccess               104667      2.50%    100.00% # Class of committed instruction
system.cpu.op_class_0::InstPrefetch                 0      0.00%    100.00% # Class of committed instruction
system.cpu.op_class_0::total                  4194604                       # Class of committed instruction
system.cpu.quiesceCycles                        13617                       # Total number of cycles that CPU has spent quiesced or waiting for an interrupt
system.cpu.tickCycles                         6897558                       # Number of cycles that the object actually ticked
system.disk0.dma_read_bytes                         0                       # Number of bytes transfered via DMA reads (not PRD).
system.disk0.dma_read_full_pages                    0                       # Number of full page size DMA reads (not PRD).
system.disk0.dma_read_txs                           0                       # Number of DMA read transactions (not PRD).
system.disk0.dma_write_bytes                    12288                       # Number of bytes transfered via DMA writes.
system.disk0.dma_write_full_pages                   0                       # Number of full page size DMA writes.
system.disk0.dma_write_txs                          3                       # Number of DMA write transactions.
system.disk2.dma_read_bytes                         0                       # Number of bytes transfered via DMA reads (not PRD).
system.disk2.dma_read_full_pages                    0                       # Number of full page size DMA reads (not PRD).
system.disk2.dma_read_txs                           0                       # Number of DMA read transactions (not PRD).
system.disk2.dma_write_bytes                        0                       # Number of bytes transfered via DMA writes.
system.disk2.dma_write_full_pages                   0                       # Number of full page size DMA writes.
system.disk2.dma_write_txs                          0                       # Number of DMA write transactions.
system.membus.snoop_filter.hit_multi_requests          440                       # Number of requests hitting in the snoop filter with multiple (>1) holders of the requested data.
system.membus.snoop_filter.hit_multi_snoops            0                       # Number of snoops hitting in the snoop filter with multiple (>1) holders of the requested data.
system.membus.snoop_filter.hit_single_requests       155576                       # Number of requests hitting in the snoop filter with a single holder of the requested data.
system.membus.snoop_filter.hit_single_snoops            0                       # Number of snoops hitting in the snoop filter with a single holder of the requested data.
system.membus.snoop_filter.tot_requests        312757                       # Total number of requests made to the snoop filter.
system.membus.snoop_filter.tot_snoops               0                       # Total number of snoops made to the snoop filter.
system.tsunami.ethernet.coalescedRxDesc           nan                       # average number of RxDesc's coalesced into each post
system.tsunami.ethernet.coalescedRxIdle           nan                       # average number of RxIdle's coalesced into each post
system.tsunami.ethernet.coalescedRxOk             nan                       # average number of RxOk's coalesced into each post
system.tsunami.ethernet.coalescedRxOrn            nan                       # average number of RxOrn's coalesced into each post
system.tsunami.ethernet.coalescedSwi              nan                       # average number of Swi's coalesced into each post
system.tsunami.ethernet.coalescedTotal            nan                       # average number of interrupts coalesced into each post
system.tsunami.ethernet.coalescedTxDesc           nan                       # average number of TxDesc's coalesced into each post
system.tsunami.ethernet.coalescedTxIdle           nan                       # average number of TxIdle's coalesced into each post
system.tsunami.ethernet.coalescedTxOk             nan                       # average number of TxOk's coalesced into each post
system.tsunami.ethernet.descDMAReads                0                       # Number of descriptors the device read w/ DMA
system.tsunami.ethernet.descDMAWrites               0                       # Number of descriptors the device wrote w/ DMA
system.tsunami.ethernet.descDmaReadBytes            0                       # number of descriptor bytes read w/ DMA
system.tsunami.ethernet.descDmaWriteBytes            0                       # number of descriptor bytes write w/ DMA
system.tsunami.ethernet.droppedPackets              0                       # number of packets dropped
system.tsunami.ethernet.postedInterrupts            0                       # number of posts to CPU
system.tsunami.ethernet.postedRxDesc                0                       # number of RxDesc interrupts posted to CPU
system.tsunami.ethernet.postedRxIdle                0                       # number of rxIdle interrupts posted to CPU
system.tsunami.ethernet.postedRxOk                  0                       # number of RxOk interrupts posted to CPU
system.tsunami.ethernet.postedRxOrn                 0                       # number of RxOrn posted to CPU
system.tsunami.ethernet.postedSwi                   0                       # number of software interrupts posted to CPU
system.tsunami.ethernet.postedTxDesc                0                       # number of TxDesc interrupts posted to CPU
system.tsunami.ethernet.postedTxIdle                0                       # number of TxIdle interrupts posted to CPU
system.tsunami.ethernet.postedTxOk                  0                       # number of TxOk interrupts posted to CPU
system.tsunami.ethernet.totalRxDesc                 0                       # total number of RxDesc written to ISR
system.tsunami.ethernet.totalRxIdle                 0                       # total number of RxIdle written to ISR
system.tsunami.ethernet.totalRxOk                   0                       # total number of RxOk written to ISR
system.tsunami.ethernet.totalRxOrn                  0                       # total number of RxOrn written to ISR
system.tsunami.ethernet.totalSwi                    0                       # total number of Swi written to ISR
system.tsunami.ethernet.totalTxDesc                 0                       # total number of TxDesc written to ISR
system.tsunami.ethernet.totalTxIdle                 0                       # total number of TxIdle written to ISR
system.tsunami.ethernet.totalTxOk                   0                       # total number of TxOk written to ISR
system.bridge.pwrStateResidencyTicks::UNDEFINED 2541836278500                       # Cumulative time (in ticks) in various power states
system.voltage_domain.voltage                       1                       # Voltage in Volts
system.iocache.pwrStateResidencyTicks::UNDEFINED 2541836278500                       # Cumulative time (in ticks) in various power states
system.iocache.demand_misses::.tsunami.ide          195                       # number of demand (read+write) misses
system.iocache.demand_misses::total               195                       # number of demand (read+write) misses
system.iocache.overall_misses::.tsunami.ide          195                       # number of overall misses
system.iocache.overall_misses::total              195                       # number of overall misses
system.iocache.demand_miss_latency::.tsunami.ide     22767457                       # number of demand (read+write) miss cycles
system.iocache.demand_miss_latency::total     22767457                       # number of demand (read+write) miss cycles
system.iocache.overall_miss_latency::.tsunami.ide     22767457                       # number of overall miss cycles
system.iocache.overall_miss_latency::total     22767457                       # number of overall miss cycles
system.iocache.demand_accesses::.tsunami.ide          195                       # number of demand (read+write) accesses
system.iocache.demand_accesses::total             195                       # number of demand (read+write) accesses
system.iocache.overall_accesses::.tsunami.ide          195                       # number of overall (read+write) accesses
system.iocache.overall_accesses::total            195                       # number of overall (read+write) accesses
system.iocache.demand_miss_rate::.tsunami.ide            1                       # miss rate for demand accesses
system.iocache.demand_miss_rate::total              1                       # miss rate for demand accesses
system.iocache.overall_miss_rate::.tsunami.ide            1                       # miss rate for overall accesses
system.iocache.overall_miss_rate::total             1                       # miss rate for overall accesses
system.iocache.demand_avg_miss_latency::.tsunami.ide 116756.189744                       # average overall miss latency
system.iocache.demand_avg_miss_latency::total 116756.189744                       # average overall miss latency
system.iocache.overall_avg_miss_latency::.tsunami.ide 116756.189744                       # average overall miss latency
system.iocache.overall_avg_miss_latency::total 116756.189744                       # average overall miss latency
system.iocache.blocked_cycles::no_mshrs             0                       # number of cycles access was blocked
system.iocache.blocked_cycles::no_targets            0                       # number of cycles access was blocked
system.iocache.blocked::no_mshrs                    0                       # number of cycles access was blocked
system.iocache.blocked::no_targets                  0                       # number of cycles access was blocked
system.iocache.avg_blocked_cycles::no_mshrs          nan                       # average number of cycles each access was blocked
system.iocache.avg_blocked_cycles::no_targets          nan                       # average number of cycles each access was blocked
system.iocache.writebacks::.writebacks            176                       # number of writebacks
system.iocache.writebacks::total                  176                       # number of writebacks
system.iocache.demand_mshr_misses::.tsunami.ide          195                       # number of demand (read+write) MSHR misses
system.iocache.demand_mshr_misses::total          195                       # number of demand (read+write) MSHR misses
system.iocache.overall_mshr_misses::.tsunami.ide          195                       # number of overall MSHR misses
system.iocache.overall_mshr_misses::total          195                       # number of overall MSHR misses
system.iocache.demand_mshr_miss_latency::.tsunami.ide     13004491                       # number of demand (read+write) MSHR miss cycles
system.iocache.demand_mshr_miss_latency::total     13004491                       # number of demand (read+write) MSHR miss cycles
system.iocache.overall_mshr_miss_latency::.tsunami.ide     13004491                       # number of overall MSHR miss cycles
system.iocache.overall_mshr_miss_latency::total     13004491                       # number of overall MSHR miss cycles
system.iocache.demand_mshr_miss_rate::.tsunami.ide            1                       # mshr miss rate for demand accesses
system.iocache.demand_mshr_miss_rate::total            1                       # mshr miss rate for demand accesses
system.iocache.overall_mshr_miss_rate::.tsunami.ide            1                       # mshr miss rate for overall accesses
system.iocache.overall_mshr_miss_rate::total            1                       # mshr miss rate for overall accesses
system.iocache.demand_avg_mshr_miss_latency::.tsunami.ide 66689.697436                       # average overall mshr miss latency
system.iocache.demand_avg_mshr_miss_latency::total 66689.697436                       # average overall mshr miss latency
system.iocache.overall_avg_mshr_miss_latency::.tsunami.ide 66689.697436                       # average overall mshr miss latency
system.iocache.overall_avg_mshr_miss_latency::total 66689.697436                       # average overall mshr miss latency
system.iocache.replacements                       179                       # number of replacements
system.iocache.ReadReq_misses::.tsunami.ide            3                       # number of ReadReq misses
system.iocache.ReadReq_misses::total                3                       # number of ReadReq misses
system.iocache.ReadReq_miss_latency::.tsunami.ide       349497                       # number of ReadReq miss cycles
system.iocache.ReadReq_miss_latency::total       349497                       # number of ReadReq miss cycles
system.iocache.ReadReq_accesses::.tsunami.ide            3                       # number of ReadReq accesses(hits+misses)
system.iocache.ReadReq_accesses::total              3                       # number of ReadReq accesses(hits+misses)
system.iocache.ReadReq_miss_rate::.tsunami.ide            1                       # miss rate for ReadReq accesses
system.iocache.ReadReq_miss_rate::total             1                       # miss rate for ReadReq accesses
system.iocache.ReadReq_avg_miss_latency::.tsunami.ide       116499                       # average ReadReq miss latency
system.iocache.ReadReq_avg_miss_latency::total       116499                       # average ReadReq miss latency
system.iocache.ReadReq_mshr_misses::.tsunami.ide            3                       # number of ReadReq MSHR misses
system.iocache.ReadReq_mshr_misses::total            3                       # number of ReadReq MSHR misses
system.iocache.ReadReq_mshr_miss_latency::.tsunami.ide       199497                       # number of ReadReq MSHR miss cycles
system.iocache.ReadReq_mshr_miss_latency::total       199497                       # number of ReadReq MSHR miss cycles
system.iocache.ReadReq_mshr_miss_rate::.tsunami.ide            1                       # mshr miss rate for ReadReq accesses
system.iocache.ReadReq_mshr_miss_rate::total            1                       # mshr miss rate for ReadReq accesses
system.iocache.ReadReq_avg_mshr_miss_latency::.tsunami.ide        66499                       # average ReadReq mshr miss latency
system.iocache.ReadReq_avg_mshr_miss_latency::total        66499                       # average ReadReq mshr miss latency
system.iocache.WriteLineReq_misses::.tsunami.ide          192                       # number of WriteLineReq misses
system.iocache.WriteLineReq_misses::total          192                       # number of WriteLineReq misses
system.iocache.WriteLineReq_miss_latency::.tsunami.ide     22417960                       # number of WriteLineReq miss cycles
system.iocache.WriteLineReq_miss_latency::total     22417960                       # number of WriteLineReq miss cycles
system.iocache.WriteLineReq_accesses::.tsunami.ide          192                       # number of WriteLineReq accesses(hits+misses)
system.iocache.WriteLineReq_accesses::total          192                       # number of WriteLineReq accesses(hits+misses)
system.iocache.WriteLineReq_miss_rate::.tsunami.ide            1                       # miss rate for WriteLineReq accesses
system.iocache.WriteLineReq_miss_rate::total            1                       # miss rate for WriteLineReq accesses
system.iocache.WriteLineReq_avg_miss_latency::.tsunami.ide 116760.208333                       # average WriteLineReq miss latency
system.iocache.WriteLineReq_avg_miss_latency::total 116760.208333                       # average WriteLineReq miss latency
system.iocache.WriteLineReq_mshr_misses::.tsunami.ide          192                       # number of WriteLineReq MSHR misses
system.iocache.WriteLineReq_mshr_misses::total          192                       # number of WriteLineReq MSHR misses
system.iocache.WriteLineReq_mshr_miss_latency::.tsunami.ide     12804994                       # number of WriteLineReq MSHR miss cycles
system.iocache.WriteLineReq_mshr_miss_latency::total     12804994                       # number of WriteLineReq MSHR miss cycles
system.iocache.WriteLineReq_mshr_miss_rate::.tsunami.ide            1                       # mshr miss rate for WriteLineReq accesses
system.iocache.WriteLineReq_mshr_miss_rate::total            1                       # mshr miss rate for WriteLineReq accesses
system.iocache.WriteLineReq_avg_mshr_miss_latency::.tsunami.ide 66692.677083                       # average WriteLineReq mshr miss latency
system.iocache.WriteLineReq_avg_mshr_miss_latency::total 66692.677083                       # average WriteLineReq mshr miss latency
system.iocache.tags.pwrStateResidencyTicks::UNDEFINED 2541836278500                       # Cumulative time (in ticks) in various power states
system.iocache.tags.tagsinuse                3.279046                       # Cycle average of tags in use
system.iocache.tags.total_refs                    179                       # Total number of references to valid blocks.
system.iocache.tags.sampled_refs                  179                       # Sample count of references to valid blocks.
system.iocache.tags.avg_refs                        1                       # Average number of references to valid blocks.
system.iocache.tags.warmup_cycle         2539411487000                       # Cycle when the warmup percentage was hit.
system.iocache.tags.occ_blocks::.tsunami.ide     3.279046                       # Average occupied blocks per requestor
system.iocache.tags.occ_percent::.tsunami.ide     0.204940                       # Average percentage of cache occupancy
system.iocache.tags.occ_percent::total       0.204940                       # Average percentage of cache occupancy
system.iocache.tags.occ_task_id_blocks::1023           16                       # Occupied blocks per task id
system.iocache.tags.age_task_id_blocks_1023::3           16                       # Occupied blocks per task id
system.iocache.tags.occ_task_id_percent::1023            1                       # Percentage of cache occupancy per task id
system.iocache.tags.tag_accesses                 1755                       # Number of tag accesses
system.iocache.tags.data_accesses                1755                       # Number of data accesses
system.membus.pwrStateResidencyTicks::UNDEFINED 2541836278500                       # Cumulative time (in ticks) in various power states
system.membus.trans_dist::ReadReq                 108                       # Transaction distribution
system.membus.trans_dist::ReadResp             128093                       # Transaction distribution
system.membus.trans_dist::WriteReq                 99                       # Transaction distribution
system.membus.trans_dist::WriteResp                99                       # Transaction distribution
system.membus.trans_dist::WritebackDirty        34843                       # Transaction distribution
system.membus.trans_dist::WritebackClean        86565                       # Transaction distribution
system.membus.trans_dist::CleanEvict            34147                       # Transaction distribution
system.membus.trans_dist::UpgradeReq               16                       # Transaction distribution
system.membus.trans_dist::ReadExReq             29008                       # Transaction distribution
system.membus.trans_dist::ReadExResp            29008                       # Transaction distribution
system.membus.trans_dist::ReadCleanReq          87155                       # Transaction distribution
system.membus.trans_dist::ReadSharedReq         40831                       # Transaction distribution
system.membus.trans_dist::BadAddressError            1                       # Transaction distribution
system.membus.trans_dist::InvalidateReq           192                       # Transaction distribution
system.membus.pkt_count_system.iocache.mem_side::system.mem_ctrls.port          374                       # Packet count per connected master and slave (bytes)
system.membus.pkt_count_system.iocache.mem_side::total          374                       # Packet count per connected master and slave (bytes)
system.membus.pkt_count_system.cpu.icache.mem_side::system.mem_ctrls.port       260812                       # Packet count per connected master and slave (bytes)
system.membus.pkt_count_system.cpu.icache.mem_side::total       260812                       # Packet count per connected master and slave (bytes)
system.membus.pkt_count_system.cpu.dcache.mem_side::system.bridge.slave          414                       # Packet count per connected master and slave (bytes)
system.membus.pkt_count_system.cpu.dcache.mem_side::system.mem_ctrls.port       208497                       # Packet count per connected master and slave (bytes)
system.membus.pkt_count_system.cpu.dcache.mem_side::system.membus.badaddr_responder.pio            2                       # Packet count per connected master and slave (bytes)
system.membus.pkt_count_system.cpu.dcache.mem_side::total       208913                       # Packet count per connected master and slave (bytes)
system.membus.pkt_count::total                 470099                       # Packet count per connected master and slave (bytes)
system.membus.pkt_size_system.iocache.mem_side::system.mem_ctrls.port        11264                       # Cumulative packet size per connected master and slave (bytes)
system.membus.pkt_size_system.iocache.mem_side::total        11264                       # Cumulative packet size per connected master and slave (bytes)
system.membus.pkt_size_system.cpu.icache.mem_side::system.mem_ctrls.port     11114048                       # Cumulative packet size per connected master and slave (bytes)
system.membus.pkt_size_system.cpu.icache.mem_side::total     11114048                       # Cumulative packet size per connected master and slave (bytes)
system.membus.pkt_size_system.cpu.dcache.mem_side::system.bridge.slave          433                       # Cumulative packet size per connected master and slave (bytes)
system.membus.pkt_size_system.cpu.dcache.mem_side::system.mem_ctrls.port      6688128                       # Cumulative packet size per connected master and slave (bytes)
system.membus.pkt_size_system.cpu.dcache.mem_side::total      6688561                       # Cumulative packet size per connected master and slave (bytes)
system.membus.pkt_size::total                17813873                       # Cumulative packet size per connected master and slave (bytes)
system.membus.snoops                               66                       # Total snoops (count)
system.membus.snoopTraffic                       4224                       # Total snoop traffic (bytes)
system.membus.snoop_fanout::samples            157409                       # Request fanout histogram
system.membus.snoop_fanout::mean             0.002808                       # Request fanout histogram
system.membus.snoop_fanout::stdev            0.052916                       # Request fanout histogram
system.membus.snoop_fanout::underflows              0      0.00%      0.00% # Request fanout histogram
system.membus.snoop_fanout::0                  156967     99.72%     99.72% # Request fanout histogram
system.membus.snoop_fanout::1                     442      0.28%    100.00% # Request fanout histogram
system.membus.snoop_fanout::2                       0      0.00%    100.00% # Request fanout histogram
system.membus.snoop_fanout::3                       0      0.00%    100.00% # Request fanout histogram
system.membus.snoop_fanout::overflows               0      0.00%    100.00% # Request fanout histogram
system.membus.snoop_fanout::min_value               0                       # Request fanout histogram
system.membus.snoop_fanout::max_value               1                       # Request fanout histogram
system.membus.snoop_fanout::total              157409                       # Request fanout histogram
system.membus.reqLayer0.occupancy              353000                       # Layer occupancy (ticks)
system.membus.reqLayer0.utilization               0.0                       # Layer utilization (%)
system.membus.reqLayer1.occupancy           820706037                       # Layer occupancy (ticks)
system.membus.reqLayer1.utilization               6.9                       # Layer utilization (%)
system.membus.reqLayer2.occupancy                1500                       # Layer occupancy (ticks)
system.membus.reqLayer2.utilization               0.0                       # Layer utilization (%)
system.membus.respLayer1.occupancy              17997                       # Layer occupancy (ticks)
system.membus.respLayer1.utilization              0.0                       # Layer utilization (%)
system.membus.respLayer3.occupancy          375695500                       # Layer occupancy (ticks)
system.membus.respLayer3.utilization              3.2                       # Layer utilization (%)
system.membus.badaddr_responder.pwrStateResidencyTicks::UNDEFINED 2541836278500                       # Cumulative time (in ticks) in various power states
system.membus.respLayer2.occupancy          462188000                       # Layer occupancy (ticks)
system.membus.respLayer2.utilization              3.9                       # Layer utilization (%)
system.clk_domain.clock                          1000                       # Clock period in ticks
system.tsunami.fake_uart1.pwrStateResidencyTicks::UNDEFINED 2541836278500                       # Cumulative time (in ticks) in various power states
system.tsunami.fake_uart2.pwrStateResidencyTicks::UNDEFINED 2541836278500                       # Cumulative time (in ticks) in various power states
system.tsunami.fake_uart3.pwrStateResidencyTicks::UNDEFINED 2541836278500                       # Cumulative time (in ticks) in various power states
system.tsunami.fake_uart4.pwrStateResidencyTicks::UNDEFINED 2541836278500                       # Cumulative time (in ticks) in various power states
system.tsunami.fake_ppc.pwrStateResidencyTicks::UNDEFINED 2541836278500                       # Cumulative time (in ticks) in various power states
system.tsunami.cchip.pwrStateResidencyTicks::UNDEFINED 2541836278500                       # Cumulative time (in ticks) in various power states
system.tsunami.io.pwrStateResidencyTicks::UNDEFINED 2541836278500                       # Cumulative time (in ticks) in various power states
system.tsunami.pchip.pwrStateResidencyTicks::UNDEFINED 2541836278500                       # Cumulative time (in ticks) in various power states
system.tsunami.fake_ata1.pwrStateResidencyTicks::UNDEFINED 2541836278500                       # Cumulative time (in ticks) in various power states
system.tsunami.fake_ata0.pwrStateResidencyTicks::UNDEFINED 2541836278500                       # Cumulative time (in ticks) in various power states
system.tsunami.backdoor.pwrStateResidencyTicks::UNDEFINED 2541836278500                       # Cumulative time (in ticks) in various power states
system.tsunami.fake_pnp_read3.pwrStateResidencyTicks::UNDEFINED 2541836278500                       # Cumulative time (in ticks) in various power states
system.tsunami.fake_pnp_read2.pwrStateResidencyTicks::UNDEFINED 2541836278500                       # Cumulative time (in ticks) in various power states
system.tsunami.fake_pnp_read1.pwrStateResidencyTicks::UNDEFINED 2541836278500                       # Cumulative time (in ticks) in various power states
system.tsunami.fake_pnp_read0.pwrStateResidencyTicks::UNDEFINED 2541836278500                       # Cumulative time (in ticks) in various power states
system.tsunami.fake_pnp_read7.pwrStateResidencyTicks::UNDEFINED 2541836278500                       # Cumulative time (in ticks) in various power states
system.tsunami.fake_pnp_read6.pwrStateResidencyTicks::UNDEFINED 2541836278500                       # Cumulative time (in ticks) in various power states
system.tsunami.fake_pnp_read5.pwrStateResidencyTicks::UNDEFINED 2541836278500                       # Cumulative time (in ticks) in various power states
system.tsunami.fake_pnp_read4.pwrStateResidencyTicks::UNDEFINED 2541836278500                       # Cumulative time (in ticks) in various power states
system.tsunami.fake_pnp_write.pwrStateResidencyTicks::UNDEFINED 2541836278500                       # Cumulative time (in ticks) in various power states
system.tsunami.fb.pwrStateResidencyTicks::UNDEFINED 2541836278500                       # Cumulative time (in ticks) in various power states
system.tsunami.fake_pnp_addr.pwrStateResidencyTicks::UNDEFINED 2541836278500                       # Cumulative time (in ticks) in various power states
system.tsunami.fake_OROM.pwrStateResidencyTicks::UNDEFINED 2541836278500                       # Cumulative time (in ticks) in various power states
system.tsunami.uart.pwrStateResidencyTicks::UNDEFINED 2541836278500                       # Cumulative time (in ticks) in various power states
system.tsunami.fake_sm_chip.pwrStateResidencyTicks::UNDEFINED 2541836278500                       # Cumulative time (in ticks) in various power states
system.tsunami.ethernet.pwrStateResidencyTicks::UNDEFINED 2541836278500                       # Cumulative time (in ticks) in various power states
system.tsunami.ide.pwrStateResidencyTicks::UNDEFINED 2541836278500                       # Cumulative time (in ticks) in various power states
system.cpu_voltage_domain.voltage                   1                       # Voltage in Volts
system.mem_ctrls.pwrStateResidencyTicks::UNDEFINED 2541836278500                       # Cumulative time (in ticks) in various power states
system.mem_ctrls.bytes_read::.cpu.inst        5573888                       # Number of bytes read from this memory
system.mem_ctrls.bytes_read::.cpu.data        4469440                       # Number of bytes read from this memory
system.mem_ctrls.bytes_read::total           10043328                       # Number of bytes read from this memory
system.mem_ctrls.bytes_inst_read::.cpu.inst      5573888                       # Number of instructions bytes read from this memory
system.mem_ctrls.bytes_inst_read::total       5573888                       # Number of instructions bytes read from this memory
system.mem_ctrls.bytes_written::.writebacks      2229952                       # Number of bytes written to this memory
system.mem_ctrls.bytes_written::total         2229952                       # Number of bytes written to this memory
system.mem_ctrls.num_reads::.cpu.inst           87092                       # Number of read requests responded to by this memory
system.mem_ctrls.num_reads::.cpu.data           69835                       # Number of read requests responded to by this memory
system.mem_ctrls.num_reads::total              156927                       # Number of read requests responded to by this memory
system.mem_ctrls.num_writes::.writebacks        34843                       # Number of write requests responded to by this memory
system.mem_ctrls.num_writes::total              34843                       # Number of write requests responded to by this memory
system.mem_ctrls.bw_read::.cpu.inst         471307601                       # Total read bandwidth from this memory (bytes/s)
system.mem_ctrls.bw_read::.cpu.data         377919514                       # Total read bandwidth from this memory (bytes/s)
system.mem_ctrls.bw_read::total             849227115                       # Total read bandwidth from this memory (bytes/s)
system.mem_ctrls.bw_inst_read::.cpu.inst    471307601                       # Instruction read bandwidth from this memory (bytes/s)
system.mem_ctrls.bw_inst_read::total        471307601                       # Instruction read bandwidth from this memory (bytes/s)
system.mem_ctrls.bw_write::.writebacks      188556592                       # Write bandwidth from this memory (bytes/s)
system.mem_ctrls.bw_write::total            188556592                       # Write bandwidth from this memory (bytes/s)
system.mem_ctrls.bw_total::.writebacks      188556592                       # Total bandwidth to/from this memory (bytes/s)
system.mem_ctrls.bw_total::.cpu.inst        471307601                       # Total bandwidth to/from this memory (bytes/s)
system.mem_ctrls.bw_total::.cpu.data        377919514                       # Total bandwidth to/from this memory (bytes/s)
system.mem_ctrls.bw_total::total           1037783707                       # Total bandwidth to/from this memory (bytes/s)
system.mem_ctrls.avgPriority_.writebacks::samples    118988.00                       # Average QoS priority value for accepted requests
system.mem_ctrls.avgPriority_.cpu.inst::samples     77290.00                       # Average QoS priority value for accepted requests
system.mem_ctrls.avgPriority_.cpu.data::samples     69337.00                       # Average QoS priority value for accepted requests
system.mem_ctrls.priorityMinLatency      0.000000018750                       # per QoS priority minimum request to response latency (s)
system.mem_ctrls.priorityMaxLatency      0.000124364750                       # per QoS priority maximum request to response latency (s)
system.mem_ctrls.numReadWriteTurnArounds         7318                       # Number of turnarounds from READ to WRITE
system.mem_ctrls.numWriteReadTurnArounds         7318                       # Number of turnarounds from WRITE to READ
system.mem_ctrls.numStayReadState              406712                       # Number of times bus staying in READ state
system.mem_ctrls.numStayWriteState             111748                       # Number of times bus staying in WRITE state
system.mem_ctrls.readReqs                      156927                       # Number of read requests accepted
system.mem_ctrls.writeReqs                     121188                       # Number of write requests accepted
system.mem_ctrls.readBursts                    156927                       # Number of DRAM read bursts, including those serviced by the write queue
system.mem_ctrls.writeBursts                   121188                       # Number of DRAM write bursts, including those merged in the write queue
system.mem_ctrls.servicedByWrQ                  10300                       # Number of DRAM read bursts serviced by the write queue
system.mem_ctrls.mergedWrBursts                  2200                       # Number of DRAM write bursts merged with an existing one
system.mem_ctrls.neitherReadNorWriteReqs            0                       # Number of requests that are neither read nor write
system.mem_ctrls.perBankRdBursts::0              8777                       # Per bank write bursts
system.mem_ctrls.perBankRdBursts::1              6752                       # Per bank write bursts
system.mem_ctrls.perBankRdBursts::2              9907                       # Per bank write bursts
system.mem_ctrls.perBankRdBursts::3              7157                       # Per bank write bursts
system.mem_ctrls.perBankRdBursts::4              8514                       # Per bank write bursts
system.mem_ctrls.perBankRdBursts::5             10037                       # Per bank write bursts
system.mem_ctrls.perBankRdBursts::6              8489                       # Per bank write bursts
system.mem_ctrls.perBankRdBursts::7              8674                       # Per bank write bursts
system.mem_ctrls.perBankRdBursts::8             11822                       # Per bank write bursts
system.mem_ctrls.perBankRdBursts::9              9238                       # Per bank write bursts
system.mem_ctrls.perBankRdBursts::10            10645                       # Per bank write bursts
system.mem_ctrls.perBankRdBursts::11            11953                       # Per bank write bursts
system.mem_ctrls.perBankRdBursts::12             8870                       # Per bank write bursts
system.mem_ctrls.perBankRdBursts::13            13505                       # Per bank write bursts
system.mem_ctrls.perBankRdBursts::14             5508                       # Per bank write bursts
system.mem_ctrls.perBankRdBursts::15             6779                       # Per bank write bursts
system.mem_ctrls.perBankWrBursts::0              7060                       # Per bank write bursts
system.mem_ctrls.perBankWrBursts::1              4542                       # Per bank write bursts
system.mem_ctrls.perBankWrBursts::2              8583                       # Per bank write bursts
system.mem_ctrls.perBankWrBursts::3              7925                       # Per bank write bursts
system.mem_ctrls.perBankWrBursts::4              7670                       # Per bank write bursts
system.mem_ctrls.perBankWrBursts::5              9878                       # Per bank write bursts
system.mem_ctrls.perBankWrBursts::6              7274                       # Per bank write bursts
system.mem_ctrls.perBankWrBursts::7              6859                       # Per bank write bursts
system.mem_ctrls.perBankWrBursts::8             10607                       # Per bank write bursts
system.mem_ctrls.perBankWrBursts::9              8397                       # Per bank write bursts
system.mem_ctrls.perBankWrBursts::10             7944                       # Per bank write bursts
system.mem_ctrls.perBankWrBursts::11             8020                       # Per bank write bursts
system.mem_ctrls.perBankWrBursts::12             5439                       # Per bank write bursts
system.mem_ctrls.perBankWrBursts::13             9935                       # Per bank write bursts
system.mem_ctrls.perBankWrBursts::14             3159                       # Per bank write bursts
system.mem_ctrls.perBankWrBursts::15             5671                       # Per bank write bursts
system.mem_ctrls.avgRdQLen                       1.09                       # Average read queue length when enqueuing
system.mem_ctrls.avgWrQLen                      25.74                       # Average write queue length when enqueuing
system.mem_ctrls.totQLat                   2012040750                       # Total ticks spent queuing
system.mem_ctrls.totBusLat                  733135000                       # Total ticks spent in databus transfers
system.mem_ctrls.totMemAccLat              4761297000                       # Total ticks spent from burst creation until serviced by the DRAM
system.mem_ctrls.avgQLat                     13722.17                       # Average queueing delay per DRAM burst
system.mem_ctrls.avgBusLat                    5000.00                       # Average bus latency per DRAM burst
system.mem_ctrls.avgMemAccLat                32472.17                       # Average memory access latency per DRAM burst
system.mem_ctrls.numRdRetry                         0                       # Number of times read queue was full causing retry
system.mem_ctrls.numWrRetry                         0                       # Number of times write queue was full causing retry
system.mem_ctrls.readRowHits                   103858                       # Number of row buffer hits during reads
system.mem_ctrls.writeRowHits                   80231                       # Number of row buffer hits during writes
system.mem_ctrls.readRowHitRate                 70.83                       # Row buffer hit rate for reads
system.mem_ctrls.writeRowHitRate                67.43                       # Row buffer hit rate for writes
system.mem_ctrls.readPktSize::0                     0                       # Read request sizes (log2)
system.mem_ctrls.readPktSize::1                     0                       # Read request sizes (log2)
system.mem_ctrls.readPktSize::2                     0                       # Read request sizes (log2)
system.mem_ctrls.readPktSize::3                     0                       # Read request sizes (log2)
system.mem_ctrls.readPktSize::4                     0                       # Read request sizes (log2)
system.mem_ctrls.readPktSize::5                     0                       # Read request sizes (log2)
system.mem_ctrls.readPktSize::6                156927                       # Read request sizes (log2)
system.mem_ctrls.writePktSize::0                    0                       # Write request sizes (log2)
system.mem_ctrls.writePktSize::1                    0                       # Write request sizes (log2)
system.mem_ctrls.writePktSize::2                    0                       # Write request sizes (log2)
system.mem_ctrls.writePktSize::3                    0                       # Write request sizes (log2)
system.mem_ctrls.writePktSize::4                    0                       # Write request sizes (log2)
system.mem_ctrls.writePktSize::5                    0                       # Write request sizes (log2)
system.mem_ctrls.writePktSize::6               121188                       # Write request sizes (log2)
system.mem_ctrls.rdQLenPdf::0                  134171                       # What read queue length does an incoming req see
system.mem_ctrls.rdQLenPdf::1                   12141                       # What read queue length does an incoming req see
system.mem_ctrls.rdQLenPdf::2                     315                       # What read queue length does an incoming req see
system.mem_ctrls.rdQLenPdf::3                       0                       # What read queue length does an incoming req see
system.mem_ctrls.rdQLenPdf::4                       0                       # What read queue length does an incoming req see
system.mem_ctrls.rdQLenPdf::5                       0                       # What read queue length does an incoming req see
system.mem_ctrls.rdQLenPdf::6                       0                       # What read queue length does an incoming req see
system.mem_ctrls.rdQLenPdf::7                       0                       # What read queue length does an incoming req see
system.mem_ctrls.rdQLenPdf::8                       0                       # What read queue length does an incoming req see
system.mem_ctrls.rdQLenPdf::9                       0                       # What read queue length does an incoming req see
system.mem_ctrls.rdQLenPdf::10                      0                       # What read queue length does an incoming req see
system.mem_ctrls.rdQLenPdf::11                      0                       # What read queue length does an incoming req see
system.mem_ctrls.rdQLenPdf::12                      0                       # What read queue length does an incoming req see
system.mem_ctrls.rdQLenPdf::13                      0                       # What read queue length does an incoming req see
system.mem_ctrls.rdQLenPdf::14                      0                       # What read queue length does an incoming req see
system.mem_ctrls.rdQLenPdf::15                      0                       # What read queue length does an incoming req see
system.mem_ctrls.rdQLenPdf::16                      0                       # What read queue length does an incoming req see
system.mem_ctrls.rdQLenPdf::17                      0                       # What read queue length does an incoming req see
system.mem_ctrls.rdQLenPdf::18                      0                       # What read queue length does an incoming req see
system.mem_ctrls.rdQLenPdf::19                      0                       # What read queue length does an incoming req see
system.mem_ctrls.rdQLenPdf::20                      0                       # What read queue length does an incoming req see
system.mem_ctrls.rdQLenPdf::21                      0                       # What read queue length does an incoming req see
system.mem_ctrls.rdQLenPdf::22                      0                       # What read queue length does an incoming req see
system.mem_ctrls.rdQLenPdf::23                      0                       # What read queue length does an incoming req see
system.mem_ctrls.rdQLenPdf::24                      0                       # What read queue length does an incoming req see
system.mem_ctrls.rdQLenPdf::25                      0                       # What read queue length does an incoming req see
system.mem_ctrls.rdQLenPdf::26                      0                       # What read queue length does an incoming req see
system.mem_ctrls.rdQLenPdf::27                      0                       # What read queue length does an incoming req see
system.mem_ctrls.rdQLenPdf::28                      0                       # What read queue length does an incoming req see
system.mem_ctrls.rdQLenPdf::29                      0                       # What read queue length does an incoming req see
system.mem_ctrls.rdQLenPdf::30                      0                       # What read queue length does an incoming req see
system.mem_ctrls.rdQLenPdf::31                      0                       # What read queue length does an incoming req see
system.mem_ctrls.wrQLenPdf::0                       1                       # What write queue length does an incoming req see
system.mem_ctrls.wrQLenPdf::1                       1                       # What write queue length does an incoming req see
system.mem_ctrls.wrQLenPdf::2                       1                       # What write queue length does an incoming req see
system.mem_ctrls.wrQLenPdf::3                       1                       # What write queue length does an incoming req see
system.mem_ctrls.wrQLenPdf::4                       1                       # What write queue length does an incoming req see
system.mem_ctrls.wrQLenPdf::5                       1                       # What write queue length does an incoming req see
system.mem_ctrls.wrQLenPdf::6                       1                       # What write queue length does an incoming req see
system.mem_ctrls.wrQLenPdf::7                       1                       # What write queue length does an incoming req see
system.mem_ctrls.wrQLenPdf::8                       1                       # What write queue length does an incoming req see
system.mem_ctrls.wrQLenPdf::9                       1                       # What write queue length does an incoming req see
system.mem_ctrls.wrQLenPdf::10                      1                       # What write queue length does an incoming req see
system.mem_ctrls.wrQLenPdf::11                      1                       # What write queue length does an incoming req see
system.mem_ctrls.wrQLenPdf::12                      1                       # What write queue length does an incoming req see
system.mem_ctrls.wrQLenPdf::13                      1                       # What write queue length does an incoming req see
system.mem_ctrls.wrQLenPdf::14                      1                       # What write queue length does an incoming req see
system.mem_ctrls.wrQLenPdf::15                    688                       # What write queue length does an incoming req see
system.mem_ctrls.wrQLenPdf::16                    789                       # What write queue length does an incoming req see
system.mem_ctrls.wrQLenPdf::17                   6713                       # What write queue length does an incoming req see
system.mem_ctrls.wrQLenPdf::18                   7309                       # What write queue length does an incoming req see
system.mem_ctrls.wrQLenPdf::19                   7446                       # What write queue length does an incoming req see
system.mem_ctrls.wrQLenPdf::20                   7411                       # What write queue length does an incoming req see
system.mem_ctrls.wrQLenPdf::21                   7418                       # What write queue length does an incoming req see
system.mem_ctrls.wrQLenPdf::22                   7491                       # What write queue length does an incoming req see
system.mem_ctrls.wrQLenPdf::23                   7407                       # What write queue length does an incoming req see
system.mem_ctrls.wrQLenPdf::24                   7407                       # What write queue length does an incoming req see
system.mem_ctrls.wrQLenPdf::25                   7378                       # What write queue length does an incoming req see
system.mem_ctrls.wrQLenPdf::26                   7427                       # What write queue length does an incoming req see
system.mem_ctrls.wrQLenPdf::27                   7376                       # What write queue length does an incoming req see
system.mem_ctrls.wrQLenPdf::28                   7364                       # What write queue length does an incoming req see
system.mem_ctrls.wrQLenPdf::29                   7339                       # What write queue length does an incoming req see
system.mem_ctrls.wrQLenPdf::30                   7324                       # What write queue length does an incoming req see
system.mem_ctrls.wrQLenPdf::31                   7320                       # What write queue length does an incoming req see
system.mem_ctrls.wrQLenPdf::32                   7320                       # What write queue length does an incoming req see
system.mem_ctrls.wrQLenPdf::33                     24                       # What write queue length does an incoming req see
system.mem_ctrls.wrQLenPdf::34                     15                       # What write queue length does an incoming req see
system.mem_ctrls.wrQLenPdf::35                      4                       # What write queue length does an incoming req see
system.mem_ctrls.wrQLenPdf::36                      2                       # What write queue length does an incoming req see
system.mem_ctrls.wrQLenPdf::37                      1                       # What write queue length does an incoming req see
system.mem_ctrls.wrQLenPdf::38                      0                       # What write queue length does an incoming req see
system.mem_ctrls.wrQLenPdf::39                      0                       # What write queue length does an incoming req see
system.mem_ctrls.wrQLenPdf::40                      0                       # What write queue length does an incoming req see
system.mem_ctrls.wrQLenPdf::41                      0                       # What write queue length does an incoming req see
system.mem_ctrls.wrQLenPdf::42                      0                       # What write queue length does an incoming req see
system.mem_ctrls.wrQLenPdf::43                      0                       # What write queue length does an incoming req see
system.mem_ctrls.wrQLenPdf::44                      0                       # What write queue length does an incoming req see
system.mem_ctrls.wrQLenPdf::45                      0                       # What write queue length does an incoming req see
system.mem_ctrls.wrQLenPdf::46                      0                       # What write queue length does an incoming req see
system.mem_ctrls.wrQLenPdf::47                      0                       # What write queue length does an incoming req see
system.mem_ctrls.wrQLenPdf::48                      0                       # What write queue length does an incoming req see
system.mem_ctrls.wrQLenPdf::49                      0                       # What write queue length does an incoming req see
system.mem_ctrls.wrQLenPdf::50                      0                       # What write queue length does an incoming req see
system.mem_ctrls.wrQLenPdf::51                      0                       # What write queue length does an incoming req see
system.mem_ctrls.wrQLenPdf::52                      0                       # What write queue length does an incoming req see
system.mem_ctrls.wrQLenPdf::53                      0                       # What write queue length does an incoming req see
system.mem_ctrls.wrQLenPdf::54                      0                       # What write queue length does an incoming req see
system.mem_ctrls.wrQLenPdf::55                      0                       # What write queue length does an incoming req see
system.mem_ctrls.wrQLenPdf::56                      0                       # What write queue length does an incoming req see
system.mem_ctrls.wrQLenPdf::57                      0                       # What write queue length does an incoming req see
system.mem_ctrls.wrQLenPdf::58                      0                       # What write queue length does an incoming req see
system.mem_ctrls.wrQLenPdf::59                      0                       # What write queue length does an incoming req see
system.mem_ctrls.wrQLenPdf::60                      0                       # What write queue length does an incoming req see
system.mem_ctrls.wrQLenPdf::61                      0                       # What write queue length does an incoming req see
system.mem_ctrls.wrQLenPdf::62                      0                       # What write queue length does an incoming req see
system.mem_ctrls.wrQLenPdf::63                      0                       # What write queue length does an incoming req see
system.mem_ctrls.bytesPerActivate::samples        81488                       # Bytes accessed per row activation
system.mem_ctrls.bytesPerActivate::mean    208.556057                       # Bytes accessed per row activation
system.mem_ctrls.bytesPerActivate::gmean   140.358223                       # Bytes accessed per row activation
system.mem_ctrls.bytesPerActivate::stdev   224.891463                       # Bytes accessed per row activation
system.mem_ctrls.bytesPerActivate::0-127        34390     42.20%     42.20% # Bytes accessed per row activation
system.mem_ctrls.bytesPerActivate::128-255        24381     29.92%     72.12% # Bytes accessed per row activation
system.mem_ctrls.bytesPerActivate::256-383        10006     12.28%     84.40% # Bytes accessed per row activation
system.mem_ctrls.bytesPerActivate::384-511         4575      5.61%     90.02% # Bytes accessed per row activation
system.mem_ctrls.bytesPerActivate::512-639         2321      2.85%     92.86% # Bytes accessed per row activation
system.mem_ctrls.bytesPerActivate::640-767         1534      1.88%     94.75% # Bytes accessed per row activation
system.mem_ctrls.bytesPerActivate::768-895          922      1.13%     95.88% # Bytes accessed per row activation
system.mem_ctrls.bytesPerActivate::896-1023          559      0.69%     96.56% # Bytes accessed per row activation
system.mem_ctrls.bytesPerActivate::1024-1151         2800      3.44%    100.00% # Bytes accessed per row activation
system.mem_ctrls.bytesPerActivate::total        81488                       # Bytes accessed per row activation
system.mem_ctrls.rdPerTurnAround::samples         7318                       # Reads before turning the bus around for writes
system.mem_ctrls.rdPerTurnAround::mean      20.035392                       # Reads before turning the bus around for writes
system.mem_ctrls.rdPerTurnAround::gmean     18.422129                       # Reads before turning the bus around for writes
system.mem_ctrls.rdPerTurnAround::stdev     12.696012                       # Reads before turning the bus around for writes
system.mem_ctrls.rdPerTurnAround::0-15           1280     17.49%     17.49% # Reads before turning the bus around for writes
system.mem_ctrls.rdPerTurnAround::16-31          5559     75.96%     93.45% # Reads before turning the bus around for writes
system.mem_ctrls.rdPerTurnAround::32-47           289      3.95%     97.40% # Reads before turning the bus around for writes
system.mem_ctrls.rdPerTurnAround::48-63            90      1.23%     98.63% # Reads before turning the bus around for writes
system.mem_ctrls.rdPerTurnAround::64-79            40      0.55%     99.18% # Reads before turning the bus around for writes
system.mem_ctrls.rdPerTurnAround::80-95            21      0.29%     99.47% # Reads before turning the bus around for writes
system.mem_ctrls.rdPerTurnAround::96-111           11      0.15%     99.62% # Reads before turning the bus around for writes
system.mem_ctrls.rdPerTurnAround::112-127           11      0.15%     99.77% # Reads before turning the bus around for writes
system.mem_ctrls.rdPerTurnAround::128-143            8      0.11%     99.88% # Reads before turning the bus around for writes
system.mem_ctrls.rdPerTurnAround::144-159            5      0.07%     99.95% # Reads before turning the bus around for writes
system.mem_ctrls.rdPerTurnAround::160-175            2      0.03%     99.97% # Reads before turning the bus around for writes
system.mem_ctrls.rdPerTurnAround::256-271            1      0.01%     99.99% # Reads before turning the bus around for writes
system.mem_ctrls.rdPerTurnAround::400-415            1      0.01%    100.00% # Reads before turning the bus around for writes
system.mem_ctrls.rdPerTurnAround::total          7318                       # Reads before turning the bus around for writes
system.mem_ctrls.wrPerTurnAround::samples         7318                       # Writes before turning the bus around for reads
system.mem_ctrls.wrPerTurnAround::mean      16.256218                       # Writes before turning the bus around for reads
system.mem_ctrls.wrPerTurnAround::gmean     16.239435                       # Writes before turning the bus around for reads
system.mem_ctrls.wrPerTurnAround::stdev      0.773395                       # Writes before turning the bus around for reads
system.mem_ctrls.wrPerTurnAround::16             6499     88.81%     88.81% # Writes before turning the bus around for reads
system.mem_ctrls.wrPerTurnAround::17              101      1.38%     90.19% # Writes before turning the bus around for reads
system.mem_ctrls.wrPerTurnAround::18              466      6.37%     96.56% # Writes before turning the bus around for reads
system.mem_ctrls.wrPerTurnAround::19              175      2.39%     98.95% # Writes before turning the bus around for reads
system.mem_ctrls.wrPerTurnAround::20               70      0.96%     99.90% # Writes before turning the bus around for reads
system.mem_ctrls.wrPerTurnAround::21                5      0.07%     99.97% # Writes before turning the bus around for reads
system.mem_ctrls.wrPerTurnAround::22                2      0.03%    100.00% # Writes before turning the bus around for reads
system.mem_ctrls.wrPerTurnAround::total          7318                       # Writes before turning the bus around for reads
system.mem_ctrls.bytesReadDRAM                9384128                       # Total number of bytes read from DRAM
system.mem_ctrls.bytesReadWrQ                  659200                       # Total number of bytes read from write queue
system.mem_ctrls.bytesWritten                 7613632                       # Total number of bytes written to DRAM
system.mem_ctrls.bytesReadSys                10043328                       # Total read bytes from the system interface side
system.mem_ctrls.bytesWrittenSys              7756032                       # Total written bytes from the system interface side
system.mem_ctrls.avgRdBW                       793.49                       # Average DRAM read bandwidth in MiByte/s
system.mem_ctrls.avgWrBW                       643.78                       # Average achieved write bandwidth in MiByte/s
system.mem_ctrls.avgRdBWSys                    849.23                       # Average system read bandwidth in MiByte/s
system.mem_ctrls.avgWrBWSys                    655.82                       # Average system write bandwidth in MiByte/s
system.mem_ctrls.peakBW                      12800.00                       # Theoretical peak bandwidth in MiByte/s
system.mem_ctrls.busUtil                        11.23                       # Data bus utilization in percentage
system.mem_ctrls.busUtilRead                     6.20                       # Data bus utilization in percentage for reads
system.mem_ctrls.busUtilWrite                    5.03                       # Data bus utilization in percentage for writes
system.mem_ctrls.totGap                   11826428500                       # Total gap between requests
system.mem_ctrls.avgGap                      42523.52                       # Average gap between requests
system.mem_ctrls.masterReadBytes::.cpu.inst      4946560                       # Per-master bytes read from memory
system.mem_ctrls.masterReadBytes::.cpu.data      4437568                       # Per-master bytes read from memory
system.mem_ctrls.masterWriteBytes::.writebacks      7613632                       # Per-master bytes write to memory
system.mem_ctrls.masterReadRate::.cpu.inst 418263037.626685976982                       # Per-master bytes read from memory rate (Bytes/sec)
system.mem_ctrls.masterReadRate::.cpu.data 375224534.091364026070                       # Per-master bytes read from memory rate (Bytes/sec)
[...]
system.cpu.icache.tags.warmup_cycle                 0                       # Cycle when the warmup percentage was hit.
system.cpu.icache.tags.occ_blocks::.cpu.inst   511.989289                       # Average occupied blocks per requestor
system.cpu.icache.tags.occ_percent::.cpu.inst     0.999979                       # Average percentage of cache occupancy
system.cpu.icache.tags.occ_percent::total     0.999979                       # Average percentage of cache occupancy
system.cpu.icache.tags.occ_task_id_blocks::1024          512                       # Occupied blocks per task id
system.cpu.icache.tags.age_task_id_blocks_1024::0          102                       # Occupied blocks per task id
system.cpu.icache.tags.age_task_id_blocks_1024::1          242                       # Occupied blocks per task id
system.cpu.icache.tags.age_task_id_blocks_1024::2          166                       # Occupied blocks per task id
system.cpu.icache.tags.age_task_id_blocks_1024::3            2                       # Occupied blocks per task id
system.cpu.icache.tags.occ_task_id_percent::1024            1                       # Percentage of cache occupancy per task id
system.cpu.icache.tags.tag_accesses           5549073                       # Number of tag accesses
system.cpu.icache.tags.data_accesses          5549073                       # Number of data accesses
system.cpu.dcache.pwrStateResidencyTicks::UNDEFINED  11954738000                       # Cumulative time (in ticks) in various power states
system.cpu.dcache.demand_hits::.cpu.data      1832726                       # number of demand (read+write) hits
system.cpu.dcache.demand_hits::total          1832726                       # number of demand (read+write) hits
system.cpu.dcache.overall_hits::.cpu.data      1832726                       # number of overall hits
system.cpu.dcache.overall_hits::total         1832726                       # number of overall hits
system.cpu.dcache.demand_misses::.cpu.data       122550                       # number of demand (read+write) misses
system.cpu.dcache.demand_misses::total         122550                       # number of demand (read+write) misses
system.cpu.dcache.overall_misses::.cpu.data       122550                       # number of overall misses
system.cpu.dcache.overall_misses::total        122550                       # number of overall misses
system.cpu.dcache.demand_miss_latency::.cpu.data   7058974000                       # number of demand (read+write) miss cycles
system.cpu.dcache.demand_miss_latency::total   7058974000                       # number of demand (read+write) miss cycles
system.cpu.dcache.overall_miss_latency::.cpu.data   7058974000                       # number of overall miss cycles
system.cpu.dcache.overall_miss_latency::total   7058974000                       # number of overall miss cycles
system.cpu.dcache.demand_accesses::.cpu.data      1955276                       # number of demand (read+write) accesses
system.cpu.dcache.demand_accesses::total      1955276                       # number of demand (read+write) accesses
system.cpu.dcache.overall_accesses::.cpu.data      1955276                       # number of overall (read+write) accesses
system.cpu.dcache.overall_accesses::total      1955276                       # number of overall (read+write) accesses
system.cpu.dcache.demand_miss_rate::.cpu.data     0.062677                       # miss rate for demand accesses
system.cpu.dcache.demand_miss_rate::total     0.062677                       # miss rate for demand accesses
system.cpu.dcache.overall_miss_rate::.cpu.data     0.062677                       # miss rate for overall accesses
system.cpu.dcache.overall_miss_rate::total     0.062677                       # miss rate for overall accesses
system.cpu.dcache.demand_avg_miss_latency::.cpu.data 57600.767034                       # average overall miss latency
system.cpu.dcache.demand_avg_miss_latency::total 57600.767034                       # average overall miss latency
system.cpu.dcache.overall_avg_miss_latency::.cpu.data 57600.767034                       # average overall miss latency
system.cpu.dcache.overall_avg_miss_latency::total 57600.767034                       # average overall miss latency
system.cpu.dcache.blocked_cycles::no_mshrs            0                       # number of cycles access was blocked
system.cpu.dcache.blocked_cycles::no_targets            0                       # number of cycles access was blocked
system.cpu.dcache.blocked::no_mshrs                 0                       # number of cycles access was blocked
system.cpu.dcache.blocked::no_targets               0                       # number of cycles access was blocked
system.cpu.dcache.avg_blocked_cycles::no_mshrs          nan                       # average number of cycles each access was blocked
system.cpu.dcache.avg_blocked_cycles::no_targets          nan                       # average number of cycles each access was blocked
system.cpu.dcache.writebacks::.writebacks        57127                       # number of writebacks
system.cpu.dcache.writebacks::total             57127                       # number of writebacks
system.cpu.dcache.demand_mshr_hits::.cpu.data        56781                       # number of demand (read+write) MSHR hits
system.cpu.dcache.demand_mshr_hits::total        56781                       # number of demand (read+write) MSHR hits
system.cpu.dcache.overall_mshr_hits::.cpu.data        56781                       # number of overall MSHR hits
system.cpu.dcache.overall_mshr_hits::total        56781                       # number of overall MSHR hits
system.cpu.dcache.demand_mshr_misses::.cpu.data        65769                       # number of demand (read+write) MSHR misses
system.cpu.dcache.demand_mshr_misses::total        65769                       # number of demand (read+write) MSHR misses
system.cpu.dcache.overall_mshr_misses::.cpu.data        65769                       # number of overall MSHR misses
system.cpu.dcache.overall_mshr_misses::total        65769                       # number of overall MSHR misses
system.cpu.dcache.overall_mshr_uncacheable_misses::.cpu.data          257                       # number of overall MSHR uncacheable misses
system.cpu.dcache.overall_mshr_uncacheable_misses::total          257                       # number of overall MSHR uncacheable misses
system.cpu.dcache.demand_mshr_miss_latency::.cpu.data   3863736500                       # number of demand (read+write) MSHR miss cycles
system.cpu.dcache.demand_mshr_miss_latency::total   3863736500                       # number of demand (read+write) MSHR miss cycles
system.cpu.dcache.overall_mshr_miss_latency::.cpu.data   3863736500                       # number of overall MSHR miss cycles
system.cpu.dcache.overall_mshr_miss_latency::total   3863736500                       # number of overall MSHR miss cycles
system.cpu.dcache.overall_mshr_uncacheable_latency::.cpu.data     35877000                       # number of overall MSHR uncacheable cycles
system.cpu.dcache.overall_mshr_uncacheable_latency::total     35877000                       # number of overall MSHR uncacheable cycles
system.cpu.dcache.demand_mshr_miss_rate::.cpu.data     0.033637                       # mshr miss rate for demand accesses
system.cpu.dcache.demand_mshr_miss_rate::total     0.033637                       # mshr miss rate for demand accesses
system.cpu.dcache.overall_mshr_miss_rate::.cpu.data     0.033637                       # mshr miss rate for overall accesses
system.cpu.dcache.overall_mshr_miss_rate::total     0.033637                       # mshr miss rate for overall accesses
system.cpu.dcache.demand_avg_mshr_miss_latency::.cpu.data 58747.076890                       # average overall mshr miss latency
system.cpu.dcache.demand_avg_mshr_miss_latency::total 58747.076890                       # average overall mshr miss latency
system.cpu.dcache.overall_avg_mshr_miss_latency::.cpu.data 58747.076890                       # average overall mshr miss latency
system.cpu.dcache.overall_avg_mshr_miss_latency::total 58747.076890                       # average overall mshr miss latency
system.cpu.dcache.overall_avg_mshr_uncacheable_latency::.cpu.data 139599.221790                       # average overall mshr uncacheable latency
system.cpu.dcache.overall_avg_mshr_uncacheable_latency::total 139599.221790                       # average overall mshr uncacheable latency
system.cpu.dcache.replacements                  66101                       # number of replacements
system.cpu.dcache.ReadReq_hits::.cpu.data       996385                       # number of ReadReq hits
system.cpu.dcache.ReadReq_hits::total          996385                       # number of ReadReq hits
system.cpu.dcache.ReadReq_misses::.cpu.data        12704                       # number of ReadReq misses
system.cpu.dcache.ReadReq_misses::total         12704                       # number of ReadReq misses
system.cpu.dcache.ReadReq_miss_latency::.cpu.data    847782000                       # number of ReadReq miss cycles
system.cpu.dcache.ReadReq_miss_latency::total    847782000                       # number of ReadReq miss cycles
system.cpu.dcache.ReadReq_accesses::.cpu.data      1009089                       # number of ReadReq accesses(hits+misses)
system.cpu.dcache.ReadReq_accesses::total      1009089                       # number of ReadReq accesses(hits+misses)
system.cpu.dcache.ReadReq_miss_rate::.cpu.data     0.012590                       # miss rate for ReadReq accesses
system.cpu.dcache.ReadReq_miss_rate::total     0.012590                       # miss rate for ReadReq accesses
system.cpu.dcache.ReadReq_avg_miss_latency::.cpu.data 66733.469773                       # average ReadReq miss latency
system.cpu.dcache.ReadReq_avg_miss_latency::total 66733.469773                       # average ReadReq miss latency
system.cpu.dcache.ReadReq_mshr_hits::.cpu.data         2208                       # number of ReadReq MSHR hits
system.cpu.dcache.ReadReq_mshr_hits::total         2208                       # number of ReadReq MSHR hits
system.cpu.dcache.ReadReq_mshr_misses::.cpu.data        10496                       # number of ReadReq MSHR misses
system.cpu.dcache.ReadReq_mshr_misses::total        10496                       # number of ReadReq MSHR misses
system.cpu.dcache.ReadReq_mshr_uncacheable::.cpu.data          165                       # number of ReadReq MSHR uncacheable
system.cpu.dcache.ReadReq_mshr_uncacheable::total          165                       # number of ReadReq MSHR uncacheable
system.cpu.dcache.ReadReq_mshr_miss_latency::.cpu.data    700927500                       # number of ReadReq MSHR miss cycles
system.cpu.dcache.ReadReq_mshr_miss_latency::total    700927500                       # number of ReadReq MSHR miss cycles
system.cpu.dcache.ReadReq_mshr_uncacheable_latency::.cpu.data     35877000                       # number of ReadReq MSHR uncacheable cycles
system.cpu.dcache.ReadReq_mshr_uncacheable_latency::total     35877000                       # number of ReadReq MSHR uncacheable cycles
system.cpu.dcache.ReadReq_mshr_miss_rate::.cpu.data     0.010401                       # mshr miss rate for ReadReq accesses
system.cpu.dcache.ReadReq_mshr_miss_rate::total     0.010401                       # mshr miss rate for ReadReq accesses
system.cpu.dcache.ReadReq_avg_mshr_miss_latency::.cpu.data 66780.440168                       # average ReadReq mshr miss latency
system.cpu.dcache.ReadReq_avg_mshr_miss_latency::total 66780.440168                       # average ReadReq mshr miss latency
system.cpu.dcache.ReadReq_avg_mshr_uncacheable_latency::.cpu.data 217436.363636                       # average ReadReq mshr uncacheable latency
system.cpu.dcache.ReadReq_avg_mshr_uncacheable_latency::total 217436.363636                       # average ReadReq mshr uncacheable latency
system.cpu.dcache.WriteReq_hits::.cpu.data       836341                       # number of WriteReq hits
system.cpu.dcache.WriteReq_hits::total         836341                       # number of WriteReq hits
system.cpu.dcache.WriteReq_misses::.cpu.data       109846                       # number of WriteReq misses
system.cpu.dcache.WriteReq_misses::total       109846                       # number of WriteReq misses
system.cpu.dcache.WriteReq_miss_latency::.cpu.data   6211192000                       # number of WriteReq miss cycles
system.cpu.dcache.WriteReq_miss_latency::total   6211192000                       # number of WriteReq miss cycles
system.cpu.dcache.WriteReq_accesses::.cpu.data       946187                       # number of WriteReq accesses(hits+misses)
system.cpu.dcache.WriteReq_accesses::total       946187                       # number of WriteReq accesses(hits+misses)
system.cpu.dcache.WriteReq_miss_rate::.cpu.data     0.116093                       # miss rate for WriteReq accesses
system.cpu.dcache.WriteReq_miss_rate::total     0.116093                       # miss rate for WriteReq accesses
system.cpu.dcache.WriteReq_avg_miss_latency::.cpu.data 56544.544180                       # average WriteReq miss latency
system.cpu.dcache.WriteReq_avg_miss_latency::total 56544.544180                       # average WriteReq miss latency
system.cpu.dcache.WriteReq_mshr_hits::.cpu.data        54573                       # number of WriteReq MSHR hits
system.cpu.dcache.WriteReq_mshr_hits::total        54573                       # number of WriteReq MSHR hits
system.cpu.dcache.WriteReq_mshr_misses::.cpu.data        55273                       # number of WriteReq MSHR misses
system.cpu.dcache.WriteReq_mshr_misses::total        55273                       # number of WriteReq MSHR misses
system.cpu.dcache.WriteReq_mshr_uncacheable::.cpu.data           92                       # number of WriteReq MSHR uncacheable
system.cpu.dcache.WriteReq_mshr_uncacheable::total           92                       # number of WriteReq MSHR uncacheable
system.cpu.dcache.WriteReq_mshr_miss_latency::.cpu.data   3162809000                       # number of WriteReq MSHR miss cycles
system.cpu.dcache.WriteReq_mshr_miss_latency::total   3162809000                       # number of WriteReq MSHR miss cycles
system.cpu.dcache.WriteReq_mshr_miss_rate::.cpu.data     0.058417                       # mshr miss rate for WriteReq accesses
system.cpu.dcache.WriteReq_mshr_miss_rate::total     0.058417                       # mshr miss rate for WriteReq accesses
system.cpu.dcache.WriteReq_avg_mshr_miss_latency::.cpu.data 57221.591012                       # average WriteReq mshr miss latency
system.cpu.dcache.WriteReq_avg_mshr_miss_latency::total 57221.591012                       # average WriteReq mshr miss latency
system.cpu.dcache.LoadLockedReq_hits::.cpu.data         4494                       # number of LoadLockedReq hits
system.cpu.dcache.LoadLockedReq_hits::total         4494                       # number of LoadLockedReq hits
system.cpu.dcache.LoadLockedReq_misses::.cpu.data          334                       # number of LoadLockedReq misses
system.cpu.dcache.LoadLockedReq_misses::total          334                       # number of LoadLockedReq misses
system.cpu.dcache.LoadLockedReq_miss_latency::.cpu.data     24700500                       # number of LoadLockedReq miss cycles
system.cpu.dcache.LoadLockedReq_miss_latency::total     24700500                       # number of LoadLockedReq miss cycles
system.cpu.dcache.LoadLockedReq_accesses::.cpu.data         4828                       # number of LoadLockedReq accesses(hits+misses)
system.cpu.dcache.LoadLockedReq_accesses::total         4828                       # number of LoadLockedReq accesses(hits+misses)
system.cpu.dcache.LoadLockedReq_miss_rate::.cpu.data     0.069180                       # miss rate for LoadLockedReq accesses
system.cpu.dcache.LoadLockedReq_miss_rate::total     0.069180                       # miss rate for LoadLockedReq accesses
system.cpu.dcache.LoadLockedReq_avg_miss_latency::.cpu.data 73953.592814                       # average LoadLockedReq miss latency
system.cpu.dcache.LoadLockedReq_avg_miss_latency::total 73953.592814                       # average LoadLockedReq miss latency
system.cpu.dcache.LoadLockedReq_mshr_misses::.cpu.data          334                       # number of LoadLockedReq MSHR misses
system.cpu.dcache.LoadLockedReq_mshr_misses::total          334                       # number of LoadLockedReq MSHR misses
system.cpu.dcache.LoadLockedReq_mshr_miss_latency::.cpu.data     24366500                       # number of LoadLockedReq MSHR miss cycles
system.cpu.dcache.LoadLockedReq_mshr_miss_latency::total     24366500                       # number of LoadLockedReq MSHR miss cycles
system.cpu.dcache.LoadLockedReq_mshr_miss_rate::.cpu.data     0.069180                       # mshr miss rate for LoadLockedReq accesses
system.cpu.dcache.LoadLockedReq_mshr_miss_rate::total     0.069180                       # mshr miss rate for LoadLockedReq accesses
system.cpu.dcache.LoadLockedReq_avg_mshr_miss_latency::.cpu.data 72953.592814                       # average LoadLockedReq mshr miss latency
system.cpu.dcache.LoadLockedReq_avg_mshr_miss_latency::total 72953.592814                       # average LoadLockedReq mshr miss latency
system.cpu.dcache.StoreCondReq_hits::.cpu.data         4777                       # number of StoreCondReq hits
system.cpu.dcache.StoreCondReq_hits::total         4777                       # number of StoreCondReq hits
system.cpu.dcache.StoreCondReq_accesses::.cpu.data         4777                       # number of StoreCondReq accesses(hits+misses)
system.cpu.dcache.StoreCondReq_accesses::total         4777                       # number of StoreCondReq accesses(hits+misses)
system.cpu.dcache.tags.pwrStateResidencyTicks::UNDEFINED  11954738000                       # Cumulative time (in ticks) in various power states
system.cpu.dcache.tags.tagsinuse                 1024                       # Cycle average of tags in use
system.cpu.dcache.tags.total_refs             7540255                       # Total number of references to valid blocks.
system.cpu.dcache.tags.sampled_refs             67125                       # Sample count of references to valid blocks.
system.cpu.dcache.tags.avg_refs            112.331546                       # Average number of references to valid blocks.
system.cpu.dcache.tags.warmup_cycle                 0                       # Cycle when the warmup percentage was hit.
system.cpu.dcache.tags.occ_blocks::.cpu.data         1024                       # Average occupied blocks per requestor
system.cpu.dcache.tags.occ_percent::.cpu.data            1                       # Average percentage of cache occupancy
system.cpu.dcache.tags.occ_percent::total            1                       # Average percentage of cache occupancy
system.cpu.dcache.tags.occ_task_id_blocks::1024         1024                       # Occupied blocks per task id
system.cpu.dcache.tags.age_task_id_blocks_1024::0           39                       # Occupied blocks per task id
system.cpu.dcache.tags.age_task_id_blocks_1024::1          701                       # Occupied blocks per task id
system.cpu.dcache.tags.age_task_id_blocks_1024::2          272                       # Occupied blocks per task id
system.cpu.dcache.tags.age_task_id_blocks_1024::3           12                       # Occupied blocks per task id
system.cpu.dcache.tags.occ_task_id_percent::1024            1                       # Percentage of cache occupancy per task id
system.cpu.dcache.tags.tag_accesses           3995863                       # Number of tag accesses
system.cpu.dcache.tags.data_accesses          3995863                       # Number of data accesses

---------- End Simulation Statistics   ----------
