
---------- Begin Simulation Statistics ----------
final_tick                               2542184692500                       # Number of ticks from beginning of simulation (restored from checkpoints and never reset)
host_inst_rate                                 226508                       # Simulator instruction rate (inst/s)
host_mem_usage                                 740736                       # Number of bytes of host memory used
host_op_rate                                   226507                       # Simulator op (including micro ops) rate (op/s)
host_seconds                                    18.52                       # Real time elapsed on the host
host_tick_rate                              657324794                       # Simulator tick rate (ticks/s)
sim_freq                                 1000000000000                       # Frequency of simulated ticks
sim_insts                                     4195311                       # Number of instructions simulated
sim_ops                                       4195311                       # Number of ops (including micro ops) simulated
sim_seconds                                  0.012175                       # Number of seconds simulated
sim_ticks                                 12174847500                       # Number of ticks simulated
system.cpu.branchPred.BTBCorrect                    0                       # Number of correct BTB predictions (this stat may not work properly.
system.cpu.branchPred.BTBHitPct             49.903952                       # BTB Hit Percentage
system.cpu.branchPred.BTBHits                  369417                       # Number of BTB hits
system.cpu.branchPred.BTBLookups               740256                       # Number of BTB lookups
system.cpu.branchPred.RASInCorrect               2628                       # Number of incorrect RAS predictions.
system.cpu.branchPred.condIncorrect            114280                       # Number of conditional branches incorrect
system.cpu.branchPred.condPredicted            951598                       # Number of conditional branches predicted
system.cpu.branchPred.indirectHits              30475                       # Number of indirect target hits.
system.cpu.branchPred.indirectLookups          210967                       # Number of indirect predictor lookups.
system.cpu.branchPred.indirectMisses           180492                       # Number of indirect misses.
system.cpu.branchPred.lookups                 1156911                       # Number of BP lookups
system.cpu.branchPred.usedRAS                   71726                       # Number of times the RAS was used to get a target.
system.cpu.branchPredindirectMispredicted        30213                       # Number of mispredicted indirect branches.
system.cpu.committedInsts                     4195311                       # Number of instructions committed
system.cpu.committedOps                       4195311                       # Number of ops (including micro ops) committed
system.cpu.cpi                               5.800774                       # CPI: cycles per instruction
system.cpu.discardedOps                        317473                       # Number of ops (including micro ops) which were discarded before commit
system.cpu.dtb.data_accesses                   618580                       # DTB accesses
system.cpu.dtb.data_acv                           130                       # DTB access violations
system.cpu.dtb.data_hits                      1479016                       # DTB hits
system.cpu.dtb.data_misses                       8420                       # DTB misses
system.cpu.dtb.fetch_accesses                       0                       # ITB accesses
system.cpu.dtb.fetch_acv                            0                       # ITB acv
system.cpu.dtb.fetch_hits                           0                       # ITB hits
system.cpu.dtb.fetch_misses                         0                       # ITB misses
system.cpu.dtb.read_accesses                   416778                       # DTB read accesses
system.cpu.dtb.read_acv                            43                       # DTB read access violations
system.cpu.dtb.read_hits                       874853                       # DTB read hits
system.cpu.dtb.read_misses                       7532                       # DTB read misses
system.cpu.dtb.write_accesses                  201802                       # DTB write accesses
system.cpu.dtb.write_acv                           87                       # DTB write access violations
system.cpu.dtb.write_hits                      604163                       # DTB write hits
system.cpu.dtb.write_misses                       888                       # DTB write misses
system.cpu.fetch2.amo_instructions                  0                       # Number of memory atomic instructions successfully decoded
system.cpu.fetch2.fp_instructions               18280                       # Number of floating point instructions successfully decoded
system.cpu.fetch2.int_instructions            3687833                       # Number of integer instructions successfully decoded
system.cpu.fetch2.load_instructions           1163206                       # Number of memory load instructions successfully decoded
system.cpu.fetch2.store_instructions           687797                       # Number of memory store instructions successfully decoded
system.cpu.fetch2.vec_instructions                  0                       # Number of SIMD instructions successfully decoded
system.cpu.idleCycles                        17112325                       # Total number of cycles that the object has spent stopped
system.cpu.ipc                               0.172391                       # IPC: instructions per cycle
system.cpu.itb.data_accesses                        0                       # DTB accesses
system.cpu.itb.data_acv                             0                       # DTB access violations
system.cpu.itb.data_hits                            0                       # DTB hits
system.cpu.itb.data_misses                          0                       # DTB misses
system.cpu.itb.fetch_accesses                  987227                       # ITB accesses
system.cpu.itb.fetch_acv                          417                       # ITB acv
system.cpu.itb.fetch_hits                      981419                       # ITB hits
system.cpu.itb.fetch_misses                      5808                       # ITB misses
system.cpu.itb.read_accesses                        0                       # DTB read accesses
system.cpu.itb.read_acv                             0                       # DTB read access violations
system.cpu.itb.read_hits                            0                       # DTB read hits
system.cpu.itb.read_misses                          0                       # DTB read misses
system.cpu.itb.write_accesses                       0                       # DTB write accesses
system.cpu.itb.write_acv                            0                       # DTB write access violations
system.cpu.itb.write_hits                           0                       # DTB write hits
system.cpu.itb.write_misses                         0                       # DTB write misses
system.cpu.kern.callpal::swpctx                   574      9.41%      9.41% # number of callpals executed
system.cpu.kern.callpal::tbi                       25      0.41%      9.81% # number of callpals executed
system.cpu.kern.callpal::swpipl                  4237     69.42%     79.24% # number of callpals executed
system.cpu.kern.callpal::rdps                      50      0.82%     80.06% # number of callpals executed
system.cpu.kern.callpal::wrusp                      4      0.07%     80.12% # number of callpals executed
system.cpu.kern.callpal::rdusp                      3      0.05%     80.17% # number of callpals executed
system.cpu.kern.callpal::rti                      897     14.70%     94.87% # number of callpals executed
system.cpu.kern.callpal::callsys                  235      3.85%     98.72% # number of callpals executed
system.cpu.kern.callpal::imb                       78      1.28%    100.00% # number of callpals executed
system.cpu.kern.callpal::total                   6103                       # number of callpals executed
system.cpu.kern.inst.arm                            0                       # number of arm instructions executed
system.cpu.kern.inst.hwrei                      14447                       # number of hwrei instructions executed
system.cpu.kern.inst.quiesce                        9                       # number of quiesce instructions executed
system.cpu.kern.ipl_count::0                     2437     47.30%     47.30% # number of times we switched to this ipl
system.cpu.kern.ipl_count::21                       5      0.10%     47.40% # number of times we switched to this ipl
system.cpu.kern.ipl_count::22                      13      0.25%     47.65% # number of times we switched to this ipl
system.cpu.kern.ipl_count::31                    2697     52.35%    100.00% # number of times we switched to this ipl
system.cpu.kern.ipl_count::total                 5152                       # number of times we switched to this ipl
system.cpu.kern.ipl_good::0                      2424     49.82%     49.82% # number of times we switched to this ipl from a different ipl
system.cpu.kern.ipl_good::21                        5      0.10%     49.92% # number of times we switched to this ipl from a different ipl
system.cpu.kern.ipl_good::22                       13      0.27%     50.18% # number of times we switched to this ipl from a different ipl
system.cpu.kern.ipl_good::31                     2424     49.82%    100.00% # number of times we switched to this ipl from a different ipl
system.cpu.kern.ipl_good::total                  4866                       # number of times we switched to this ipl from a different ipl
system.cpu.kern.ipl_ticks::0              11216658500     92.10%     92.10% # number of cycles we spent at this ipl
system.cpu.kern.ipl_ticks::21                 9078500      0.07%     92.17% # number of cycles we spent at this ipl
system.cpu.kern.ipl_ticks::22                19564000      0.16%     92.33% # number of cycles we spent at this ipl
system.cpu.kern.ipl_ticks::31               933820000      7.67%    100.00% # number of cycles we spent at this ipl
system.cpu.kern.ipl_ticks::total          12179121000                       # number of cycles we spent at this ipl
system.cpu.kern.ipl_used::0                  0.994666                       # fraction of swpipl calls that actually changed the ipl
system.cpu.kern.ipl_used::21                        1                       # fraction of swpipl calls that actually changed the ipl
system.cpu.kern.ipl_used::22                        1                       # fraction of swpipl calls that actually changed the ipl
system.cpu.kern.ipl_used::31                 0.898776                       # fraction of swpipl calls that actually changed the ipl
system.cpu.kern.ipl_used::total              0.944488                       # fraction of swpipl calls that actually changed the ipl
system.cpu.kern.mode_good::kernel                 873                      
system.cpu.kern.mode_good::user                   873                      
system.cpu.kern.mode_good::idle                     0                      
system.cpu.kern.mode_switch::kernel              1471                       # number of protection mode switches
system.cpu.kern.mode_switch::user                 873                       # number of protection mode switches
system.cpu.kern.mode_switch::idle                   0                       # number of protection mode switches
system.cpu.kern.mode_switch_good::kernel     0.593474                       # fraction of useful protection mode switches
system.cpu.kern.mode_switch_good::user              1                       # fraction of useful protection mode switches
system.cpu.kern.mode_switch_good::idle            nan                       # fraction of useful protection mode switches
system.cpu.kern.mode_switch_good::total      0.744881                       # fraction of useful protection mode switches
system.cpu.kern.mode_ticks::kernel         8213030500     67.44%     67.44% # number of ticks spent at the given mode
system.cpu.kern.mode_ticks::user           3966090500     32.56%    100.00% # number of ticks spent at the given mode
system.cpu.kern.mode_ticks::idle                    0      0.00%    100.00% # number of ticks spent at the given mode
system.cpu.kern.swap_context                      574                       # number of times the context was actually changed
system.cpu.numCycles                         24336050                       # number of cpu cycles simulated
system.cpu.numFetchSuspends                         9                       # Number of times Execute suspended instruction fetching
system.cpu.numWorkItemsCompleted                    0                       # number of work items this cpu completed
system.cpu.numWorkItemsStarted                      0                       # number of work items this cpu started
system.cpu.op_class_0::No_OpClass               85381      2.04%      2.04% # Class of committed instruction
system.cpu.op_class_0::IntAlu                 2541052     60.57%     62.60% # Class of committed instruction
system.cpu.op_class_0::IntMult                   3684      0.09%     62.69% # Class of committed instruction
system.cpu.op_class_0::IntDiv                       0      0.00%     62.69% # Class of committed instruction
system.cpu.op_class_0::FloatAdd                  8286      0.20%     62.89% # Class of committed instruction
system.cpu.op_class_0::FloatCmp                     0      0.00%     62.89% # Class of committed instruction
system.cpu.op_class_0::FloatCvt                     0      0.00%     62.89% # Class of committed instruction
system.cpu.op_class_0::FloatMult                    0      0.00%     62.89% # Class of committed instruction
system.cpu.op_class_0::FloatMultAcc                 0      0.00%     62.89% # Class of committed instruction
system.cpu.op_class_0::FloatDiv                  1593      0.04%     62.93% # Class of committed instruction
system.cpu.op_class_0::FloatMisc                    0      0.00%     62.93% # Class of committed instruction
system.cpu.op_class_0::FloatSqrt                    0      0.00%     62.93% # Class of committed instruction
system.cpu.op_class_0::SimdAdd                      0      0.00%     62.93% # Class of committed instruction
system.cpu.op_class_0::SimdAddAcc                   0      0.00%     62.93% # Class of committed instruction
system.cpu.op_class_0::SimdAlu                      0      0.00%     62.93% # Class of committed instruction
system.cpu.op_class_0::SimdCmp                      0      0.00%     62.93% # Class of committed instruction
system.cpu.op_class_0::SimdCvt                      0      0.00%     62.93% # Class of committed instruction
system.cpu.op_class_0::SimdMisc                     0      0.00%     62.93% # Class of committed instruction
system.cpu.op_class_0::SimdMult                     0      0.00%     62.93% # Class of committed instruction
system.cpu.op_class_0::SimdMultAcc                  0      0.00%     62.93% # Class of committed instruction
system.cpu.op_class_0::SimdShift                    0      0.00%     62.93% # Class of committed instruction
system.cpu.op_class_0::SimdShiftAcc                 0      0.00%     62.93% # Class of committed instruction
system.cpu.op_class_0::SimdDiv                      0      0.00%     62.93% # Class of committed instruction
system.cpu.op_class_0::SimdSqrt                     0      0.00%     62.93% # Class of committed instruction
system.cpu.op_class_0::SimdFloatAdd                 0      0.00%     62.93% # Class of committed instruction
system.cpu.op_class_0::SimdFloatAlu                 0      0.00%     62.93% # Class of committed instruction
system.cpu.op_class_0::SimdFloatCmp                 0      0.00%     62.93% # Class of committed instruction
system.cpu.op_class_0::SimdFloatCvt                 0      0.00%     62.93% # Class of committed instruction
system.cpu.op_class_0::SimdFloatDiv                 0      0.00%     62.93% # Class of committed instruction
system.cpu.op_class_0::SimdFloatMisc                0      0.00%     62.93% # Class of committed instruction
system.cpu.op_class_0::SimdFloatMult                0      0.00%     62.93% # Class of committed instruction
system.cpu.op_class_0::SimdFloatMultAcc             0      0.00%     62.93% # Class of committed instruction
system.cpu.op_class_0::SimdFloatSqrt                0      0.00%     62.93% # Class of committed instruction
system.cpu.op_class_0::SimdReduceAdd                0      0.00%     62.93% # Class of committed instruction
system.cpu.op_class_0::SimdReduceAlu                0      0.00%     62.93% # Class of committed instruction
system.cpu.op_class_0::SimdReduceCmp                0      0.00%     62.93% # Class of committed instruction
system.cpu.op_class_0::SimdFloatReduceAdd            0      0.00%     62.93% # Class of committed instruction
system.cpu.op_class_0::SimdFloatReduceCmp            0      0.00%     62.93% # Class of committed instruction
system.cpu.op_class_0::SimdAes                      0      0.00%     62.93% # Class of committed instruction
system.cpu.op_class_0::SimdAesMix                   0      0.00%     62.93% # Class of committed instruction
system.cpu.op_class_0::SimdSha1Hash                 0      0.00%     62.93% # Class of committed instruction
system.cpu.op_class_0::SimdSha1Hash2                0      0.00%     62.93% # Class of committed instruction
system.cpu.op_class_0::SimdSha256Hash               0      0.00%     62.93% # Class of committed instruction
system.cpu.op_class_0::SimdSha256Hash2              0      0.00%     62.93% # Class of committed instruction
system.cpu.op_class_0::SimdShaSigma2                0      0.00%     62.93% # Class of committed instruction
system.cpu.op_class_0::SimdShaSigma3                0      0.00%     62.93% # Class of committed instruction
system.cpu.op_class_0::SimdPredAlu                  0      0.00%     62.93% # Class of committed instruction
system.cpu.op_class_0::MemRead                 839148     20.00%     82.93% # Class of committed instruction
system.cpu.op_class_0::MemWrite                592439     14.12%     97.05% # Class of committed instruction
system.cpu.op_class_0::FloatMemRead              9988      0.24%     97.29% # Class of committed instruction
system.cpu.op_class_0::FloatMemWrite             8788      0.21%     97.50% # Class of committed instruction
system.cpu.op_class_0::IprAccess               104952      2.50%    100.00% # Class of committed instruction
system.cpu.op_class_0::InstPrefetch                 0      0.00%    100.00% # Class of committed instruction
system.cpu.op_class_0::total                  4195311                       # Class of committed instruction
system.cpu.quiesceCycles                        13645                       # Total number of cycles that CPU has spent quiesced or waiting for an interrupt
system.cpu.tickCycles                         7223725                       # Number of cycles that the object actually ticked
system.disk0.dma_read_bytes                         0                       # Number of bytes transfered via DMA reads (not PRD).
system.disk0.dma_read_full_pages                    0                       # Number of full page size DMA reads (not PRD).
system.disk0.dma_read_txs                           0                       # Number of DMA read transactions (not PRD).
system.disk0.dma_write_bytes                    12288                       # Number of bytes transfered via DMA writes.
system.disk0.dma_write_full_pages                   0                       # Number of full page size DMA writes.
system.disk0.dma_write_txs                          3                       # Number of DMA write transactions.
system.disk2.dma_read_bytes                         0                       # Number of bytes transfered via DMA reads (not PRD).
system.disk2.dma_read_full_pages                    0                       # Number of full page size DMA reads (not PRD).
system.disk2.dma_read_txs                           0                       # Number of DMA read transactions (not PRD).
system.disk2.dma_write_bytes                        0                       # Number of bytes transfered via DMA writes.
system.disk2.dma_write_full_pages                   0                       # Number of full page size DMA writes.
system.disk2.dma_write_txs                          0                       # Number of DMA write transactions.
system.membus.snoop_filter.hit_multi_requests          441                       # Number of requests hitting in the snoop filter with multiple (>1) holders of the requested data.
system.membus.snoop_filter.hit_multi_snoops            0                       # Number of snoops hitting in the snoop filter with multiple (>1) holders of the requested data.
system.membus.snoop_filter.hit_single_requests       158512                       # Number of requests hitting in the snoop filter with a single holder of the requested data.
system.membus.snoop_filter.hit_single_snoops            0                       # Number of snoops hitting in the snoop filter with a single holder of the requested data.
system.membus.snoop_filter.tot_requests        318631                       # Total number of requests made to the snoop filter.
system.membus.snoop_filter.tot_snoops               0                       # Total number of snoops made to the snoop filter.
system.tsunami.ethernet.coalescedRxDesc           nan                       # average number of RxDesc's coalesced into each post
system.tsunami.ethernet.coalescedRxIdle           nan                       # average number of RxIdle's coalesced into each post
system.tsunami.ethernet.coalescedRxOk             nan                       # average number of RxOk's coalesced into each post
system.tsunami.ethernet.coalescedRxOrn            nan                       # average number of RxOrn's coalesced into each post
system.tsunami.ethernet.coalescedSwi              nan                       # average number of Swi's coalesced into each post
system.tsunami.ethernet.coalescedTotal            nan                       # average number of interrupts coalesced into each post
system.tsunami.ethernet.coalescedTxDesc           nan                       # average number of TxDesc's coalesced into each post
system.tsunami.ethernet.coalescedTxIdle           nan                       # average number of TxIdle's coalesced into each post
system.tsunami.ethernet.coalescedTxOk             nan                       # average number of TxOk's coalesced into each post
system.tsunami.ethernet.descDMAReads                0                       # Number of descriptors the device read w/ DMA
system.tsunami.ethernet.descDMAWrites               0                       # Number of descriptors the device wrote w/ DMA
system.tsunami.ethernet.descDmaReadBytes            0                       # number of descriptor bytes read w/ DMA
system.tsunami.ethernet.descDmaWriteBytes            0                       # number of descriptor bytes write w/ DMA
system.tsunami.ethernet.droppedPackets              0                       # number of packets dropped
system.tsunami.ethernet.postedInterrupts            0                       # number of posts to CPU
system.tsunami.ethernet.postedRxDesc                0                       # number of RxDesc interrupts posted to CPU
system.tsunami.ethernet.postedRxIdle                0                       # number of rxIdle interrupts posted to CPU
system.tsunami.ethernet.postedRxOk                  0                       # number of RxOk interrupts posted to CPU
system.tsunami.ethernet.postedRxOrn                 0                       # number of RxOrn posted to CPU
system.tsunami.ethernet.postedSwi                   0                       # number of software interrupts posted to CPU
system.tsunami.ethernet.postedTxDesc                0                       # number of TxDesc interrupts posted to CPU
system.tsunami.ethernet.postedTxIdle                0                       # number of TxIdle interrupts posted to CPU
system.tsunami.ethernet.postedTxOk                  0                       # number of TxOk interrupts posted to CPU
system.tsunami.ethernet.totalRxDesc                 0                       # total number of RxDesc written to ISR
system.tsunami.ethernet.totalRxIdle                 0                       # total number of RxIdle written to ISR
system.tsunami.ethernet.totalRxOk                   0                       # total number of RxOk written to ISR
system.tsunami.ethernet.totalRxOrn                  0                       # total number of RxOrn written to ISR
system.tsunami.ethernet.totalSwi                    0                       # total number of Swi written to ISR
system.tsunami.ethernet.totalTxDesc                 0                       # total number of TxDesc written to ISR
system.tsunami.ethernet.totalTxIdle                 0                       # total number of TxIdle written to ISR
system.tsunami.ethernet.totalTxOk                   0                       # total number of TxOk written to ISR
system.bridge.pwrStateResidencyTicks::UNDEFINED 2542184692500                       # Cumulative time (in ticks) in various power states
system.voltage_domain.voltage                       1                       # Voltage in Volts
system.iocache.pwrStateResidencyTicks::UNDEFINED 2542184692500                       # Cumulative time (in ticks) in various power states
system.iocache.demand_misses::.tsunami.ide          195                       # number of demand (read+write) misses
system.iocache.demand_misses::total               195                       # number of demand (read+write) misses
system.iocache.overall_misses::.tsunami.ide          195                       # number of overall misses
system.iocache.overall_misses::total              195                       # number of overall misses
system.iocache.demand_miss_latency::.tsunami.ide     22995958                       # number of demand (read+write) miss cycles
system.iocache.demand_miss_latency::total     22995958                       # number of demand (read+write) miss cycles
system.iocache.overall_miss_latency::.tsunami.ide     22995958                       # number of overall miss cycles
system.iocache.overall_miss_latency::total     22995958                       # number of overall miss cycles
system.iocache.demand_accesses::.tsunami.ide          195                       # number of demand (read+write) accesses
system.iocache.demand_accesses::total             195                       # number of demand (read+write) accesses
system.iocache.overall_accesses::.tsunami.ide          195                       # number of overall (read+write) accesses
system.iocache.overall_accesses::total            195                       # number of overall (read+write) accesses
system.iocache.demand_miss_rate::.tsunami.ide            1                       # miss rate for demand accesses
system.iocache.demand_miss_rate::total              1                       # miss rate for demand accesses
system.iocache.overall_miss_rate::.tsunami.ide            1                       # miss rate for overall accesses
system.iocache.overall_miss_rate::total             1                       # miss rate for overall accesses
system.iocache.demand_avg_miss_latency::.tsunami.ide 117927.989744                       # average overall miss latency
system.iocache.demand_avg_miss_latency::total 117927.989744                       # average overall miss latency
system.iocache.overall_avg_miss_latency::.tsunami.ide 117927.989744                       # average overall miss latency
system.iocache.overall_avg_miss_latency::total 117927.989744                       # average overall miss latency
system.iocache.blocked_cycles::no_mshrs             0                       # number of cycles access was blocked
system.iocache.blocked_cycles::no_targets            0                       # number of cycles access was blocked
system.iocache.blocked::no_mshrs                    0                       # number of cycles access was blocked
system.iocache.blocked::no_targets                  0                       # number of cycles access was blocked
system.iocache.avg_blocked_cycles::no_mshrs          nan                       # average number of cycles each access was blocked
system.iocache.avg_blocked_cycles::no_targets          nan                       # average number of cycles each access was blocked
system.iocache.writebacks::.writebacks            176                       # number of writebacks
system.iocache.writebacks::total                  176                       # number of writebacks
system.iocache.demand_mshr_misses::.tsunami.ide          195                       # number of demand (read+write) MSHR misses
system.iocache.demand_mshr_misses::total          195                       # number of demand (read+write) MSHR misses
system.iocache.overall_mshr_misses::.tsunami.ide          195                       # number of overall MSHR misses
system.iocache.overall_mshr_misses::total          195                       # number of overall MSHR misses
system.iocache.demand_mshr_miss_latency::.tsunami.ide     13233991                       # number of demand (read+write) MSHR miss cycles
system.iocache.demand_mshr_miss_latency::total     13233991                       # number of demand (read+write) MSHR miss cycles
system.iocache.overall_mshr_miss_latency::.tsunami.ide     13233991                       # number of overall MSHR miss cycles
system.iocache.overall_mshr_miss_latency::total     13233991                       # number of overall MSHR miss cycles
system.iocache.demand_mshr_miss_rate::.tsunami.ide            1                       # mshr miss rate for demand accesses
system.iocache.demand_mshr_miss_rate::total            1                       # mshr miss rate for demand accesses
system.iocache.overall_mshr_miss_rate::.tsunami.ide            1                       # mshr miss rate for overall accesses
system.iocache.overall_mshr_miss_rate::total            1                       # mshr miss rate for overall accesses
system.iocache.demand_avg_mshr_miss_latency::.tsunami.ide 67866.620513                       # average overall mshr miss latency
system.iocache.demand_avg_mshr_miss_latency::total 67866.620513                       # average overall mshr miss latency
system.iocache.overall_avg_mshr_miss_latency::.tsunami.ide 67866.620513                       # average overall mshr miss latency
system.iocache.overall_avg_mshr_miss_latency::total 67866.620513                       # average overall mshr miss latency
system.iocache.replacements                       179                       # number of replacements
system.iocache.ReadReq_misses::.tsunami.ide            3                       # number of ReadReq misses
system.iocache.ReadReq_misses::total                3                       # number of ReadReq misses
system.iocache.ReadReq_miss_latency::.tsunami.ide       349997                       # number of ReadReq miss cycles
system.iocache.ReadReq_miss_latency::total       349997                       # number of ReadReq miss cycles
system.iocache.ReadReq_accesses::.tsunami.ide            3                       # number of ReadReq accesses(hits+misses)
system.iocache.ReadReq_accesses::total              3                       # number of ReadReq accesses(hits+misses)
system.iocache.ReadReq_miss_rate::.tsunami.ide            1                       # miss rate for ReadReq accesses
system.iocache.ReadReq_miss_rate::total             1                       # miss rate for ReadReq accesses
system.iocache.ReadReq_avg_miss_latency::.tsunami.ide 116665.666667                       # average ReadReq miss latency
system.iocache.ReadReq_avg_miss_latency::total 116665.666667                       # average ReadReq miss latency
system.iocache.ReadReq_mshr_misses::.tsunami.ide            3                       # number of ReadReq MSHR misses
system.iocache.ReadReq_mshr_misses::total            3                       # number of ReadReq MSHR misses
system.iocache.ReadReq_mshr_miss_latency::.tsunami.ide       199997                       # number of ReadReq MSHR miss cycles
system.iocache.ReadReq_mshr_miss_latency::total       199997                       # number of ReadReq MSHR miss cycles
system.iocache.ReadReq_mshr_miss_rate::.tsunami.ide            1                       # mshr miss rate for ReadReq accesses
system.iocache.ReadReq_mshr_miss_rate::total            1                       # mshr miss rate for ReadReq accesses
system.iocache.ReadReq_avg_mshr_miss_latency::.tsunami.ide 66665.666667                       # average ReadReq mshr miss latency
system.iocache.ReadReq_avg_mshr_miss_latency::total 66665.666667                       # average ReadReq mshr miss latency
system.iocache.WriteLineReq_misses::.tsunami.ide          192                       # number of WriteLineReq misses
system.iocache.WriteLineReq_misses::total          192                       # number of WriteLineReq misses
system.iocache.WriteLineReq_miss_latency::.tsunami.ide     22645961                       # number of WriteLineReq miss cycles
system.iocache.WriteLineReq_miss_latency::total     22645961                       # number of WriteLineReq miss cycles
system.iocache.WriteLineReq_accesses::.tsunami.ide          192                       # number of WriteLineReq accesses(hits+misses)
system.iocache.WriteLineReq_accesses::total          192                       # number of WriteLineReq accesses(hits+misses)
system.iocache.WriteLineReq_miss_rate::.tsunami.ide            1                       # miss rate for WriteLineReq accesses
system.iocache.WriteLineReq_miss_rate::total            1                       # miss rate for WriteLineReq accesses
system.iocache.WriteLineReq_avg_miss_latency::.tsunami.ide 117947.713542                       # average WriteLineReq miss latency
system.iocache.WriteLineReq_avg_miss_latency::total 117947.713542                       # average WriteLineReq miss latency
system.iocache.WriteLineReq_mshr_misses::.tsunami.ide          192                       # number of WriteLineReq MSHR misses
system.iocache.WriteLineReq_mshr_misses::total          192                       # number of WriteLineReq MSHR misses
system.iocache.WriteLineReq_mshr_miss_latency::.tsunami.ide     13033994                       # number of WriteLineReq MSHR miss cycles
system.iocache.WriteLineReq_mshr_miss_latency::total     13033994                       # number of WriteLineReq MSHR miss cycles
system.iocache.WriteLineReq_mshr_miss_rate::.tsunami.ide            1                       # mshr miss rate for WriteLineReq accesses
system.iocache.WriteLineReq_mshr_miss_rate::total            1                       # mshr miss rate for WriteLineReq accesses
system.iocache.WriteLineReq_avg_mshr_miss_latency::.tsunami.ide 67885.385417                       # average WriteLineReq mshr miss latency
system.iocache.WriteLineReq_avg_mshr_miss_latency::total 67885.385417                       # average WriteLineReq mshr miss latency
system.iocache.tags.pwrStateResidencyTicks::UNDEFINED 2542184692500                       # Cumulative time (in ticks) in various power states
system.iocache.tags.tagsinuse                3.286517                       # Cycle average of tags in use
system.iocache.tags.total_refs                    179                       # Total number of references to valid blocks.
system.iocache.tags.sampled_refs                  179                       # Sample count of references to valid blocks.
system.iocache.tags.avg_refs                        1                       # Average number of references to valid blocks.
system.iocache.tags.warmup_cycle         2539682812000                       # Cycle when the warmup percentage was hit.
system.iocache.tags.occ_blocks::.tsunami.ide     3.286517                       # Average occupied blocks per requestor
system.iocache.tags.occ_percent::.tsunami.ide     0.205407                       # Average percentage of cache occupancy
system.iocache.tags.occ_percent::total       0.205407                       # Average percentage of cache occupancy
system.iocache.tags.occ_task_id_blocks::1023           16                       # Occupied blocks per task id
system.iocache.tags.age_task_id_blocks_1023::3           16                       # Occupied blocks per task id
system.iocache.tags.occ_task_id_percent::1023            1                       # Percentage of cache occupancy per task id
system.iocache.tags.tag_accesses                 1755                       # Number of tag accesses
system.iocache.tags.data_accesses                1755                       # Number of data accesses
system.membus.pwrStateResidencyTicks::UNDEFINED 2542184692500                       # Cumulative time (in ticks) in various power states
system.membus.trans_dist::ReadReq                 108                       # Transaction distribution
system.membus.trans_dist::ReadResp             131048                       # Transaction distribution
system.membus.trans_dist::WriteReq                100                       # Transaction distribution
system.membus.trans_dist::WriteResp               100                       # Transaction distribution
system.membus.trans_dist::WritebackDirty        34955                       # Transaction distribution
system.membus.trans_dist::WritebackClean        88840                       # Transaction distribution
system.membus.trans_dist::CleanEvict            34697                       # Transaction distribution
system.membus.trans_dist::UpgradeReq               15                       # Transaction distribution
system.membus.trans_dist::ReadExReq             28990                       # Transaction distribution
system.membus.trans_dist::ReadExResp            28990                       # Transaction distribution
system.membus.trans_dist::ReadCleanReq          89430                       # Transaction distribution
system.membus.trans_dist::ReadSharedReq         41512                       # Transaction distribution
system.membus.trans_dist::BadAddressError            2                       # Transaction distribution
system.membus.trans_dist::InvalidateReq           192                       # Transaction distribution
system.membus.pkt_count_system.iocache.mem_side::system.mem_ctrls.port          374                       # Packet count per connected master and slave (bytes)
system.membus.pkt_count_system.iocache.mem_side::total          374                       # Packet count per connected master and slave (bytes)
system.membus.pkt_count_system.cpu.icache.mem_side::system.mem_ctrls.port       267635                       # Packet count per connected master and slave (bytes)
system.membus.pkt_count_system.cpu.icache.mem_side::total       267635                       # Packet count per connected master and slave (bytes)
system.membus.pkt_count_system.cpu.dcache.mem_side::system.bridge.slave          416                       # Packet count per connected master and slave (bytes)
system.membus.pkt_count_system.cpu.dcache.mem_side::system.mem_ctrls.port       210482                       # Packet count per connected master and slave (bytes)
system.membus.pkt_count_system.cpu.dcache.mem_side::system.membus.badaddr_responder.pio            4                       # Packet count per connected master and slave (bytes)
system.membus.pkt_count_system.cpu.dcache.mem_side::total       210902                       # Packet count per connected master and slave (bytes)
system.membus.pkt_count::total                 478911                       # Packet count per connected master and slave (bytes)
system.membus.pkt_size_system.iocache.mem_side::system.mem_ctrls.port        11264                       # Cumulative packet size per connected master and slave (bytes)
system.membus.pkt_size_system.iocache.mem_side::total        11264                       # Cumulative packet size per connected master and slave (bytes)
system.membus.pkt_size_system.cpu.icache.mem_side::system.mem_ctrls.port     11405120                       # Cumulative packet size per connected master and slave (bytes)
system.membus.pkt_size_system.cpu.icache.mem_side::total     11405120                       # Cumulative packet size per connected master and slave (bytes)
system.membus.pkt_size_system.cpu.dcache.mem_side::system.bridge.slave          441                       # Cumulative packet size per connected master and slave (bytes)
system.membus.pkt_size_system.cpu.dcache.mem_side::system.mem_ctrls.port      6737664                       # Cumulative packet size per connected master and slave (bytes)
system.membus.pkt_size_system.cpu.dcache.mem_side::total      6738105                       # Cumulative packet size per connected master and slave (bytes)
system.membus.pkt_size::total                18154489                       # Cumulative packet size per connected master and slave (bytes)
system.membus.snoops                               68                       # Total snoops (count)
system.membus.snoopTraffic                       4352                       # Total snoop traffic (bytes)
system.membus.snoop_fanout::samples            160347                       # Request fanout histogram
system.membus.snoop_fanout::mean             0.002757                       # Request fanout histogram
system.membus.snoop_fanout::stdev            0.052430                       # Request fanout histogram
system.membus.snoop_fanout::underflows              0      0.00%      0.00% # Request fanout histogram
system.membus.snoop_fanout::0                  159905     99.72%     99.72% # Request fanout histogram
system.membus.snoop_fanout::1                     442      0.28%    100.00% # Request fanout histogram
system.membus.snoop_fanout::2                       0      0.00%    100.00% # Request fanout histogram
system.membus.snoop_fanout::3                       0      0.00%    100.00% # Request fanout histogram
system.membus.snoop_fanout::overflows               0      0.00%    100.00% # Request fanout histogram
system.membus.snoop_fanout::min_value               0                       # Request fanout histogram
system.membus.snoop_fanout::max_value               1                       # Request fanout histogram
system.membus.snoop_fanout::total              160347                       # Request fanout histogram
system.membus.reqLayer0.occupancy              355000                       # Layer occupancy (ticks)
system.membus.reqLayer0.utilization               0.0                       # Layer utilization (%)
system.membus.reqLayer1.occupancy           837263536                       # Layer occupancy (ticks)
system.membus.reqLayer1.utilization               6.9                       # Layer utilization (%)
system.membus.reqLayer2.occupancy                3000                       # Layer occupancy (ticks)
system.membus.reqLayer2.utilization               0.0                       # Layer utilization (%)
system.membus.respLayer1.occupancy              17997                       # Layer occupancy (ticks)
system.membus.respLayer1.utilization              0.0                       # Layer utilization (%)
system.membus.respLayer3.occupancy          379344750                       # Layer occupancy (ticks)
system.membus.respLayer3.utilization              3.1                       # Layer utilization (%)
system.membus.badaddr_responder.pwrStateResidencyTicks::UNDEFINED 2542184692500                       # Cumulative time (in ticks) in various power states
system.membus.respLayer2.occupancy          474178000                       # Layer occupancy (ticks)
system.membus.respLayer2.utilization              3.9                       # Layer utilization (%)
system.clk_domain.clock                          1000                       # Clock period in ticks
system.tsunami.fake_uart1.pwrStateResidencyTicks::UNDEFINED 2542184692500                       # Cumulative time (in ticks) in various power states
system.tsunami.fake_uart2.pwrStateResidencyTicks::UNDEFINED 2542184692500                       # Cumulative time (in ticks) in various power states
system.tsunami.fake_uart3.pwrStateResidencyTicks::UNDEFINED 2542184692500                       # Cumulative time (in ticks) in various power states
system.tsunami.fake_uart4.pwrStateResidencyTicks::UNDEFINED 2542184692500                       # Cumulative time (in ticks) in various power states
system.tsunami.fake_ppc.pwrStateResidencyTicks::UNDEFINED 2542184692500                       # Cumulative time (in ticks) in various power states
system.tsunami.cchip.pwrStateResidencyTicks::UNDEFINED 2542184692500                       # Cumulative time (in ticks) in various power states
system.tsunami.io.pwrStateResidencyTicks::UNDEFINED 2542184692500                       # Cumulative time (in ticks) in various power states
system.tsunami.pchip.pwrStateResidencyTicks::UNDEFINED 2542184692500                       # Cumulative time (in ticks) in various power states
system.tsunami.fake_ata1.pwrStateResidencyTicks::UNDEFINED 2542184692500                       # Cumulative time (in ticks) in various power states
system.tsunami.fake_ata0.pwrStateResidencyTicks::UNDEFINED 2542184692500                       # Cumulative time (in ticks) in various power states
system.tsunami.backdoor.pwrStateResidencyTicks::UNDEFINED 2542184692500                       # Cumulative time (in ticks) in various power states
system.tsunami.fake_pnp_read3.pwrStateResidencyTicks::UNDEFINED 2542184692500                       # Cumulative time (in ticks) in various power states
system.tsunami.fake_pnp_read2.pwrStateResidencyTicks::UNDEFINED 2542184692500                       # Cumulative time (in ticks) in various power states
system.tsunami.fake_pnp_read1.pwrStateResidencyTicks::UNDEFINED 2542184692500                       # Cumulative time (in ticks) in various power states
system.tsunami.fake_pnp_read0.pwrStateResidencyTicks::UNDEFINED 2542184692500                       # Cumulative time (in ticks) in various power states
system.tsunami.fake_pnp_read7.pwrStateResidencyTicks::UNDEFINED 2542184692500                       # Cumulative time (in ticks) in various power states
system.tsunami.fake_pnp_read6.pwrStateResidencyTicks::UNDEFINED 2542184692500                       # Cumulative time (in ticks) in various power states
system.tsunami.fake_pnp_read5.pwrStateResidencyTicks::UNDEFINED 2542184692500                       # Cumulative time (in ticks) in various power states
system.tsunami.fake_pnp_read4.pwrStateResidencyTicks::UNDEFINED 2542184692500                       # Cumulative time (in ticks) in various power states
system.tsunami.fake_pnp_write.pwrStateResidencyTicks::UNDEFINED 2542184692500                       # Cumulative time (in ticks) in various power states
system.tsunami.fb.pwrStateResidencyTicks::UNDEFINED 2542184692500                       # Cumulative time (in ticks) in various power states
system.tsunami.fake_pnp_addr.pwrStateResidencyTicks::UNDEFINED 2542184692500                       # Cumulative time (in ticks) in various power states
system.tsunami.fake_OROM.pwrStateResidencyTicks::UNDEFINED 2542184692500                       # Cumulative time (in ticks) in various power states
system.tsunami.uart.pwrStateResidencyTicks::UNDEFINED 2542184692500                       # Cumulative time (in ticks) in various power states
system.tsunami.fake_sm_chip.pwrStateResidencyTicks::UNDEFINED 2542184692500                       # Cumulative time (in ticks) in various power states
system.tsunami.ethernet.pwrStateResidencyTicks::UNDEFINED 2542184692500                       # Cumulative time (in ticks) in various power states
system.tsunami.ide.pwrStateResidencyTicks::UNDEFINED 2542184692500                       # Cumulative time (in ticks) in various power states
system.cpu_voltage_domain.voltage                   1                       # Voltage in Volts
system.mem_ctrls.pwrStateResidencyTicks::UNDEFINED 2542184692500                       # Cumulative time (in ticks) in various power states
system.mem_ctrls.bytes_read::.cpu.inst        5719360                       # Number of bytes read from this memory
system.mem_ctrls.bytes_read::.cpu.data        4511808                       # Number of bytes read from this memory
system.mem_ctrls.bytes_read::total           10231168                       # Number of bytes read from this memory
system.mem_ctrls.bytes_inst_read::.cpu.inst      5719360                       # Number of instructions bytes read from this memory
system.mem_ctrls.bytes_inst_read::total       5719360                       # Number of instructions bytes read from this memory
system.mem_ctrls.bytes_written::.writebacks      2237120                       # Number of bytes written to this memory
system.mem_ctrls.bytes_written::total         2237120                       # Number of bytes written to this memory
system.mem_ctrls.num_reads::.cpu.inst           89365                       # Number of read requests responded to by this memory
system.mem_ctrls.num_reads::.cpu.data           70497                       # Number of read requests responded to by this memory
system.mem_ctrls.num_reads::total              159862                       # Number of read requests responded to by this memory
system.mem_ctrls.num_writes::.writebacks        34955                       # Number of write requests responded to by this memory
system.mem_ctrls.num_writes::total              34955                       # Number of write requests responded to by this memory
system.mem_ctrls.bw_read::.cpu.inst         469768513                       # Total read bandwidth from this memory (bytes/s)
system.mem_ctrls.bw_read::.cpu.data         370584354                       # Total read bandwidth from this memory (bytes/s)
system.mem_ctrls.bw_read::total             840352867                       # Total read bandwidth from this memory (bytes/s)
system.mem_ctrls.bw_inst_read::.cpu.inst    469768513                       # Instruction read bandwidth from this memory (bytes/s)
system.mem_ctrls.bw_inst_read::total        469768513                       # Instruction read bandwidth from this memory (bytes/s)
system.mem_ctrls.bw_write::.writebacks      183749324                       # Write bandwidth from this memory (bytes/s)
system.mem_ctrls.bw_write::total            183749324                       # Write bandwidth from this memory (bytes/s)
system.mem_ctrls.bw_total::.writebacks      183749324                       # Total bandwidth to/from this memory (bytes/s)
system.mem_ctrls.bw_total::.cpu.inst        469768513                       # Total bandwidth to/from this memory (bytes/s)
system.mem_ctrls.bw_total::.cpu.data        370584354                       # Total bandwidth to/from this memory (bytes/s)
system.mem_ctrls.bw_total::total           1024102191                       # Total bandwidth to/from this memory (bytes/s)
system.mem_ctrls.avgPriority_.writebacks::samples    121517.00                       # Average QoS priority value for accepted requests
system.mem_ctrls.avgPriority_.cpu.inst::samples     79506.00                       # Average QoS priority value for accepted requests
system.mem_ctrls.avgPriority_.cpu.data::samples     70026.00                       # Average QoS priority value for accepted requests
system.mem_ctrls.priorityMinLatency      0.000000018750                       # per QoS priority minimum request to response latency (s)
system.mem_ctrls.priorityMaxLatency      0.000138586750                       # per QoS priority maximum request to response latency (s)
system.mem_ctrls.numReadWriteTurnArounds         7477                       # Number of turnarounds from READ to WRITE
system.mem_ctrls.numWriteReadTurnArounds         7477                       # Number of turnarounds from WRITE to READ
system.mem_ctrls.numStayReadState              414880                       # Number of times bus staying in READ state
system.mem_ctrls.numStayWriteState             114117                       # Number of times bus staying in WRITE state
system.mem_ctrls.readReqs                      159862                       # Number of read requests accepted
system.mem_ctrls.writeReqs                     123571                       # Number of write requests accepted
system.mem_ctrls.readBursts                    159862                       # Number of DRAM read bursts, including those serviced by the write queue
system.mem_ctrls.writeBursts                   123571                       # Number of DRAM write bursts, including those merged in the write queue
system.mem_ctrls.servicedByWrQ                  10330                       # Number of DRAM read bursts serviced by the write queue
system.mem_ctrls.mergedWrBursts                  2054                       # Number of DRAM write bursts merged with an existing one
system.mem_ctrls.neitherReadNorWriteReqs            0                       # Number of requests that are neither read nor write
system.mem_ctrls.perBankRdBursts::0              9007                       # Per bank write bursts
system.mem_ctrls.perBankRdBursts::1              6671                       # Per bank write bursts
system.mem_ctrls.perBankRdBursts::2             10181                       # Per bank write bursts
system.mem_ctrls.perBankRdBursts::3              7184                       # Per bank write bursts
system.mem_ctrls.perBankRdBursts::4              8690                       # Per bank write bursts
system.mem_ctrls.perBankRdBursts::5             10075                       # Per bank write bursts
system.mem_ctrls.perBankRdBursts::6              8880                       # Per bank write bursts
system.mem_ctrls.perBankRdBursts::7              8821                       # Per bank write bursts
system.mem_ctrls.perBankRdBursts::8             11913                       # Per bank write bursts
system.mem_ctrls.perBankRdBursts::9              9397                       # Per bank write bursts
system.mem_ctrls.perBankRdBursts::10            10682                       # Per bank write bursts
system.mem_ctrls.perBankRdBursts::11            12523                       # Per bank write bursts
system.mem_ctrls.perBankRdBursts::12             8873                       # Per bank write bursts
system.mem_ctrls.perBankRdBursts::13            13818                       # Per bank write bursts
system.mem_ctrls.perBankRdBursts::14             5701                       # Per bank write bursts
system.mem_ctrls.perBankRdBursts::15             7116                       # Per bank write bursts
system.mem_ctrls.perBankWrBursts::0              7334                       # Per bank write bursts
system.mem_ctrls.perBankWrBursts::1              4468                       # Per bank write bursts
system.mem_ctrls.perBankWrBursts::2              8890                       # Per bank write bursts
system.mem_ctrls.perBankWrBursts::3              8012                       # Per bank write bursts
system.mem_ctrls.perBankWrBursts::4              7820                       # Per bank write bursts
system.mem_ctrls.perBankWrBursts::5              9807                       # Per bank write bursts
system.mem_ctrls.perBankWrBursts::6              7635                       # Per bank write bursts
system.mem_ctrls.perBankWrBursts::7              7002                       # Per bank write bursts
system.mem_ctrls.perBankWrBursts::8             10751                       # Per bank write bursts
system.mem_ctrls.perBankWrBursts::9              8565                       # Per bank write bursts
system.mem_ctrls.perBankWrBursts::10             8023                       # Per bank write bursts
system.mem_ctrls.perBankWrBursts::11             8299                       # Per bank write bursts
system.mem_ctrls.perBankWrBursts::12             5487                       # Per bank write bursts
system.mem_ctrls.perBankWrBursts::13            10142                       # Per bank write bursts
system.mem_ctrls.perBankWrBursts::14             3298                       # Per bank write bursts
system.mem_ctrls.perBankWrBursts::15             5964                       # Per bank write bursts
system.mem_ctrls.avgRdQLen                       1.09                       # Average read queue length when enqueuing
system.mem_ctrls.avgWrQLen                      25.72                       # Average write queue length when enqueuing
system.mem_ctrls.totQLat                   2046778750                       # Total ticks spent queuing
system.mem_ctrls.totBusLat                  747660000                       # Total ticks spent in databus transfers
system.mem_ctrls.totMemAccLat              4850503750                       # Total ticks spent from burst creation until serviced by the DRAM
system.mem_ctrls.avgQLat                     13687.90                       # Average queueing delay per DRAM burst
system.mem_ctrls.avgBusLat                    5000.00                       # Average bus latency per DRAM burst
system.mem_ctrls.avgMemAccLat                32437.90                       # Average memory access latency per DRAM burst
system.mem_ctrls.numRdRetry                         0                       # Number of times read queue was full causing retry
system.mem_ctrls.numWrRetry                         0                       # Number of times write queue was full causing retry
system.mem_ctrls.readRowHits                   105872                       # Number of row buffer hits during reads
system.mem_ctrls.writeRowHits                   81946                       # Number of row buffer hits during writes
system.mem_ctrls.readRowHitRate                 70.80                       # Row buffer hit rate for reads
system.mem_ctrls.writeRowHitRate                67.44                       # Row buffer hit rate for writes
system.mem_ctrls.readPktSize::0                     0                       # Read request sizes (log2)
system.mem_ctrls.readPktSize::1                     0                       # Read request sizes (log2)
system.mem_ctrls.readPktSize::2                     0                       # Read request sizes (log2)
system.mem_ctrls.readPktSize::3                     0                       # Read request sizes (log2)
system.mem_ctrls.readPktSize::4                     0                       # Read request sizes (log2)
system.mem_ctrls.readPktSize::5                     0                       # Read request sizes (log2)
system.mem_ctrls.readPktSize::6                159862                       # Read request sizes (log2)
system.mem_ctrls.writePktSize::0                    0                       # Write request sizes (log2)
system.mem_ctrls.writePktSize::1                    0                       # Write request sizes (log2)
system.mem_ctrls.writePktSize::2                    0                       # Write request sizes (log2)
system.mem_ctrls.writePktSize::3                    0                       # Write request sizes (log2)
system.mem_ctrls.writePktSize::4                    0                       # Write request sizes (log2)
system.mem_ctrls.writePktSize::5                    0                       # Write request sizes (log2)
system.mem_ctrls.writePktSize::6               123571                       # Write request sizes (log2)
system.mem_ctrls.rdQLenPdf::0                  137000                       # What read queue length does an incoming req see
system.mem_ctrls.rdQLenPdf::1                   12220                       # What read queue length does an incoming req see
system.mem_ctrls.rdQLenPdf::2                     312                       # What read queue length does an incoming req see
system.mem_ctrls.rdQLenPdf::3                       0                       # What read queue length does an incoming req see
system.mem_ctrls.rdQLenPdf::4                       0                       # What read queue length does an incoming req see
system.mem_ctrls.rdQLenPdf::5                       0                       # What read queue length does an incoming req see
system.mem_ctrls.rdQLenPdf::6                       0                       # What read queue length does an incoming req see
system.mem_ctrls.rdQLenPdf::7                       0                       # What read queue length does an incoming req see
system.mem_ctrls.rdQLenPdf::8                       0                       # What read queue length does an incoming req see
system.mem_ctrls.rdQLenPdf::9                       0                       # What read queue length does an incoming req see
system.mem_ctrls.rdQLenPdf::10                      0                       # What read queue length does an incoming req see
system.mem_ctrls.rdQLenPdf::11                      0                       # What read queue length does an incoming req see
system.mem_ctrls.rdQLenPdf::12                      0                       # What read queue length does an incoming req see
system.mem_ctrls.rdQLenPdf::13                      0                       # What read queue length does an incoming req see
system.mem_ctrls.rdQLenPdf::14                      0                       # What read queue length does an incoming req see
system.mem_ctrls.rdQLenPdf::15                      0                       # What read queue length does an incoming req see
system.mem_ctrls.rdQLenPdf::16                      0                       # What read queue length does an incoming req see
system.mem_ctrls.rdQLenPdf::17                      0                       # What read queue length does an incoming req see
system.mem_ctrls.rdQLenPdf::18                      0                       # What read queue length does an incoming req see
system.mem_ctrls.rdQLenPdf::19                      0                       # What read queue length does an incoming req see
system.mem_ctrls.rdQLenPdf::20                      0                       # What read queue length does an incoming req see
system.mem_ctrls.rdQLenPdf::21                      0                       # What read queue length does an incoming req see
system.mem_ctrls.rdQLenPdf::22                      0                       # What read queue length does an incoming req see
system.mem_ctrls.rdQLenPdf::23                      0                       # What read queue length does an incoming req see
system.mem_ctrls.rdQLenPdf::24                      0                       # What read queue length does an incoming req see
system.mem_ctrls.rdQLenPdf::25                      0                       # What read queue length does an incoming req see
system.mem_ctrls.rdQLenPdf::26                      0                       # What read queue length does an incoming req see
system.mem_ctrls.rdQLenPdf::27                      0                       # What read queue length does an incoming req see
system.mem_ctrls.rdQLenPdf::28                      0                       # What read queue length does an incoming req see
system.mem_ctrls.rdQLenPdf::29                      0                       # What read queue length does an incoming req see
system.mem_ctrls.rdQLenPdf::30                      0                       # What read queue length does an incoming req see
system.mem_ctrls.rdQLenPdf::31                      0                       # What read queue length does an incoming req see
system.mem_ctrls.wrQLenPdf::0                       1                       # What write queue length does an incoming req see
system.mem_ctrls.wrQLenPdf::1                       1                       # What write queue length does an incoming req see
system.mem_ctrls.wrQLenPdf::2                       1                       # What write queue length does an incoming req see
system.mem_ctrls.wrQLenPdf::3                       1                       # What write queue length does an incoming req see
system.mem_ctrls.wrQLenPdf::4                       1                       # What write queue length does an incoming req see
system.mem_ctrls.wrQLenPdf::5                       1                       # What write queue length does an incoming req see
system.mem_ctrls.wrQLenPdf::6                       1                       # What write queue length does an incoming req see
system.mem_ctrls.wrQLenPdf::7                       1                       # What write queue length does an incoming req see
system.mem_ctrls.wrQLenPdf::8                       1                       # What write queue length does an incoming req see
system.mem_ctrls.wrQLenPdf::9                       1                       # What write queue length does an incoming req see
system.mem_ctrls.wrQLenPdf::10                      1                       # What write queue length does an incoming req see
system.mem_ctrls.wrQLenPdf::11                      1                       # What write queue length does an incoming req see
system.mem_ctrls.wrQLenPdf::12                      1                       # What write queue length does an incoming req see
system.mem_ctrls.wrQLenPdf::13                      1                       # What write queue length does an incoming req see
system.mem_ctrls.wrQLenPdf::14                      1                       # What write queue length does an incoming req see
system.mem_ctrls.wrQLenPdf::15                    701                       # What write queue length does an incoming req see
system.mem_ctrls.wrQLenPdf::16                    808                       # What write queue length does an incoming req see
system.mem_ctrls.wrQLenPdf::17                   6902                       # What write queue length does an incoming req see
system.mem_ctrls.wrQLenPdf::18                   7501                       # What write queue length does an incoming req see
system.mem_ctrls.wrQLenPdf::19                   7572                       # What write queue length does an incoming req see
system.mem_ctrls.wrQLenPdf::20                   7558                       # What write queue length does an incoming req see
system.mem_ctrls.wrQLenPdf::21                   7552                       # What write queue length does an incoming req see
system.mem_ctrls.wrQLenPdf::22                   7635                       # What write queue length does an incoming req see
system.mem_ctrls.wrQLenPdf::23                   7557                       # What write queue length does an incoming req see
system.mem_ctrls.wrQLenPdf::24                   7555                       # What write queue length does an incoming req see
system.mem_ctrls.wrQLenPdf::25                   7548                       # What write queue length does an incoming req see
system.mem_ctrls.wrQLenPdf::26                   7589                       # What write queue length does an incoming req see
system.mem_ctrls.wrQLenPdf::27                   7535                       # What write queue length does an incoming req see
system.mem_ctrls.wrQLenPdf::28                   7519                       # What write queue length does an incoming req see
system.mem_ctrls.wrQLenPdf::29                   7506                       # What write queue length does an incoming req see
system.mem_ctrls.wrQLenPdf::30                   7480                       # What write queue length does an incoming req see
system.mem_ctrls.wrQLenPdf::31                   7480                       # What write queue length does an incoming req see
system.mem_ctrls.wrQLenPdf::32                   7478                       # What write queue length does an incoming req see
system.mem_ctrls.wrQLenPdf::33                     13                       # What write queue length does an incoming req see
system.mem_ctrls.wrQLenPdf::34                      5                       # What write queue length does an incoming req see
system.mem_ctrls.wrQLenPdf::35                      3                       # What write queue length does an incoming req see
system.mem_ctrls.wrQLenPdf::36                      3                       # What write queue length does an incoming req see
system.mem_ctrls.wrQLenPdf::37                      2                       # What write queue length does an incoming req see
system.mem_ctrls.wrQLenPdf::38                      0                       # What write queue length does an incoming req see
system.mem_ctrls.wrQLenPdf::39                      0                       # What write queue length does an incoming req see
system.mem_ctrls.wrQLenPdf::40                      0                       # What write queue length does an incoming req see
system.mem_ctrls.wrQLenPdf::41                      0                       # What write queue length does an incoming req see
system.mem_ctrls.wrQLenPdf::42                      0                       # What write queue length does an incoming req see
system.mem_ctrls.wrQLenPdf::43                      0                       # What write queue length does an incoming req see
system.mem_ctrls.wrQLenPdf::44                      0                       # What write queue length does an incoming req see
system.mem_ctrls.wrQLenPdf::45                      0                       # What write queue length does an incoming req see
system.mem_ctrls.wrQLenPdf::46                      0                       # What write queue length does an incoming req see
system.mem_ctrls.wrQLenPdf::47                      0                       # What write queue length does an incoming req see
system.mem_ctrls.wrQLenPdf::48                      0                       # What write queue length does an incoming req see
system.mem_ctrls.wrQLenPdf::49                      0                       # What write queue length does an incoming req see
system.mem_ctrls.wrQLenPdf::50                      0                       # What write queue length does an incoming req see
system.mem_ctrls.wrQLenPdf::51                      0                       # What write queue length does an incoming req see
system.mem_ctrls.wrQLenPdf::52                      0                       # What write queue length does an incoming req see
system.mem_ctrls.wrQLenPdf::53                      0                       # What write queue length does an incoming req see
system.mem_ctrls.wrQLenPdf::54                      0                       # What write queue length does an incoming req see
system.mem_ctrls.wrQLenPdf::55                      0                       # What write queue length does an incoming req see
system.mem_ctrls.wrQLenPdf::56                      0                       # What write queue length does an incoming req see
system.mem_ctrls.wrQLenPdf::57                      0                       # What write queue length does an incoming req see
system.mem_ctrls.wrQLenPdf::58                      0                       # What write queue length does an incoming req see
system.mem_ctrls.wrQLenPdf::59                      0                       # What write queue length does an incoming req see
system.mem_ctrls.wrQLenPdf::60                      0                       # What write queue length does an incoming req see
system.mem_ctrls.wrQLenPdf::61                      0                       # What write queue length does an incoming req see
system.mem_ctrls.wrQLenPdf::62                      0                       # What write queue length does an incoming req see
system.mem_ctrls.wrQLenPdf::63                      0                       # What write queue length does an incoming req see
system.mem_ctrls.bytesPerActivate::samples        83197                       # Bytes accessed per row activation
system.mem_ctrls.bytesPerActivate::mean    208.462132                       # Bytes accessed per row activation
system.mem_ctrls.bytesPerActivate::gmean   140.176332                       # Bytes accessed per row activation
system.mem_ctrls.bytesPerActivate::stdev   224.949514                       # Bytes accessed per row activation
system.mem_ctrls.bytesPerActivate::0-127        35255     42.38%     42.38% # Bytes accessed per row activation
system.mem_ctrls.bytesPerActivate::128-255        24815     29.83%     72.20% # Bytes accessed per row activation
system.mem_ctrls.bytesPerActivate::256-383        10069     12.10%     84.30% # Bytes accessed per row activation
system.mem_ctrls.bytesPerActivate::384-511         4697      5.65%     89.95% # Bytes accessed per row activation
system.mem_ctrls.bytesPerActivate::512-639         2494      3.00%     92.95% # Bytes accessed per row activation
system.mem_ctrls.bytesPerActivate::640-767         1509      1.81%     94.76% # Bytes accessed per row activation
system.mem_ctrls.bytesPerActivate::768-895          885      1.06%     95.83% # Bytes accessed per row activation
system.mem_ctrls.bytesPerActivate::896-1023          625      0.75%     96.58% # Bytes accessed per row activation
system.mem_ctrls.bytesPerActivate::1024-1151         2848      3.42%    100.00% # Bytes accessed per row activation
system.mem_ctrls.bytesPerActivate::total        83197                       # Bytes accessed per row activation
system.mem_ctrls.rdPerTurnAround::samples         7477                       # Reads before turning the bus around for writes
system.mem_ctrls.rdPerTurnAround::mean      19.998529                       # Reads before turning the bus around for writes
system.mem_ctrls.rdPerTurnAround::gmean     18.404549                       # Reads before turning the bus around for writes
system.mem_ctrls.rdPerTurnAround::stdev     12.766543                       # Reads before turning the bus around for writes
system.mem_ctrls.rdPerTurnAround::0-15           1294     17.31%     17.31% # Reads before turning the bus around for writes
system.mem_ctrls.rdPerTurnAround::16-31          5696     76.18%     93.49% # Reads before turning the bus around for writes
system.mem_ctrls.rdPerTurnAround::32-47           303      4.05%     97.54% # Reads before turning the bus around for writes
system.mem_ctrls.rdPerTurnAround::48-63            85      1.14%     98.68% # Reads before turning the bus around for writes
system.mem_ctrls.rdPerTurnAround::64-79            32      0.43%     99.10% # Reads before turning the bus around for writes
system.mem_ctrls.rdPerTurnAround::80-95            25      0.33%     99.44% # Reads before turning the bus around for writes
system.mem_ctrls.rdPerTurnAround::96-111           13      0.17%     99.61% # Reads before turning the bus around for writes
system.mem_ctrls.rdPerTurnAround::112-127           12      0.16%     99.77% # Reads before turning the bus around for writes
system.mem_ctrls.rdPerTurnAround::128-143            6      0.08%     99.85% # Reads before turning the bus around for writes
system.mem_ctrls.rdPerTurnAround::144-159            5      0.07%     99.92% # Reads before turning the bus around for writes
system.mem_ctrls.rdPerTurnAround::160-175            2      0.03%     99.95% # Reads before turning the bus around for writes
system.mem_ctrls.rdPerTurnAround::176-191            2      0.03%     99.97% # Reads before turning the bus around for writes
system.mem_ctrls.rdPerTurnAround::256-271            1      0.01%     99.99% # Reads before turning the bus around for writes
system.mem_ctrls.rdPerTurnAround::416-431            1      0.01%    100.00% # Reads before turning the bus around for writes
system.mem_ctrls.rdPerTurnAround::total          7477                       # Reads before turning the bus around for writes
system.mem_ctrls.wrPerTurnAround::samples         7477                       # Writes before turning the bus around for reads
system.mem_ctrls.wrPerTurnAround::mean      16.249432                       # Writes before turning the bus around for reads
system.mem_ctrls.wrPerTurnAround::gmean     16.233550                       # Writes before turning the bus around for reads
system.mem_ctrls.wrPerTurnAround::stdev      0.750585                       # Writes before turning the bus around for reads
system.mem_ctrls.wrPerTurnAround::16             6648     88.91%     88.91% # Writes before turning the bus around for reads
system.mem_ctrls.wrPerTurnAround::17               96      1.28%     90.20% # Writes before turning the bus around for reads
system.mem_ctrls.wrPerTurnAround::18              495      6.62%     96.82% # Writes before turning the bus around for reads
system.mem_ctrls.wrPerTurnAround::19              175      2.34%     99.16% # Writes before turning the bus around for reads
system.mem_ctrls.wrPerTurnAround::20               61      0.82%     99.97% # Writes before turning the bus around for reads
system.mem_ctrls.wrPerTurnAround::21                2      0.03%    100.00% # Writes before turning the bus around for reads
system.mem_ctrls.wrPerTurnAround::total          7477                       # Writes before turning the bus around for reads
system.mem_ctrls.bytesReadDRAM                9570048                       # Total number of bytes read from DRAM
system.mem_ctrls.bytesReadWrQ                  661120                       # Total number of bytes read from write queue
system.mem_ctrls.bytesWritten                 7775808                       # Total number of bytes written to DRAM
system.mem_ctrls.bytesReadSys                10231168                       # Total read bytes from the system interface side
system.mem_ctrls.bytesWrittenSys              7908544                       # Total written bytes from the system interface side
system.mem_ctrls.avgRdBW                       786.05                       # Average DRAM read bandwidth in MiByte/s
system.mem_ctrls.avgWrBW                       638.68                       # Average achieved write bandwidth in MiByte/s
system.mem_ctrls.avgRdBWSys                    840.35                       # Average system read bandwidth in MiByte/s
system.mem_ctrls.avgWrBWSys                    649.58                       # Average system write bandwidth in MiByte/s
system.mem_ctrls.peakBW                      12800.00                       # Theoretical peak bandwidth in MiByte/s
system.mem_ctrls.busUtil                        11.13                       # Data bus utilization in percentage
system.mem_ctrls.busUtilRead                     6.14                       # Data bus utilization in percentage for reads
system.mem_ctrls.busUtilWrite                    4.99                       # Data bus utilization in percentage for writes
system.mem_ctrls.totGap                   12174842500                       # Total gap between requests
system.mem_ctrls.avgGap                      42954.92                       # Average gap between requests
system.mem_ctrls.masterReadBytes::.cpu.inst      5088384                       # Per-master bytes read from memory
system.mem_ctrls.masterReadBytes::.cpu.data      4481664                       # Per-master bytes read from memory
system.mem_ctrls.masterWriteBytes::.writebacks      7775808                       # Per-master bytes write to memory
system.mem_ctrls.masterReadRate::.cpu.inst 417942319.195373892784                       # Per-master bytes read from memory rate (Bytes/sec)
system.mem_ctrls.masterReadRate::.cpu.data 368108430.105592668056                       # Per-master bytes read from memory rate (Bytes/sec)
[...]
system.cpu.icache.tags.occ_percent::total            1                       # Average percentage of cache occupancy
system.cpu.icache.tags.occ_task_id_blocks::1024          512                       # Occupied blocks per task id
system.cpu.icache.tags.age_task_id_blocks_1024::0           82                       # Occupied blocks per task id
system.cpu.icache.tags.age_task_id_blocks_1024::1          372                       # Occupied blocks per task id
system.cpu.icache.tags.age_task_id_blocks_1024::2           57                       # Occupied blocks per task id
system.cpu.icache.tags.age_task_id_blocks_1024::3            1                       # Occupied blocks per task id
system.cpu.icache.tags.occ_task_id_percent::1024            1                       # Percentage of cache occupancy per task id
system.cpu.icache.tags.tag_accesses         244159468                       # Number of tag accesses
system.cpu.icache.tags.data_accesses        244159468                       # Number of data accesses
system.cpu.dcache.pwrStateResidencyTicks::UNDEFINED 638343406500                       # Cumulative time (in ticks) in various power states
system.cpu.dcache.demand_hits::.cpu.data    167306544                       # number of demand (read+write) hits
system.cpu.dcache.demand_hits::total        167306544                       # number of demand (read+write) hits
system.cpu.dcache.overall_hits::.cpu.data    167306544                       # number of overall hits
system.cpu.dcache.overall_hits::total       167306544                       # number of overall hits
system.cpu.dcache.demand_misses::.cpu.data       547528                       # number of demand (read+write) misses
system.cpu.dcache.demand_misses::total         547528                       # number of demand (read+write) misses
system.cpu.dcache.overall_misses::.cpu.data       547528                       # number of overall misses
system.cpu.dcache.overall_misses::total        547528                       # number of overall misses
system.cpu.dcache.demand_miss_latency::.cpu.data  36566532000                       # number of demand (read+write) miss cycles
system.cpu.dcache.demand_miss_latency::total  36566532000                       # number of demand (read+write) miss cycles
system.cpu.dcache.overall_miss_latency::.cpu.data  36566532000                       # number of overall miss cycles
system.cpu.dcache.overall_miss_latency::total  36566532000                       # number of overall miss cycles
system.cpu.dcache.demand_accesses::.cpu.data    167854072                       # number of demand (read+write) accesses
system.cpu.dcache.demand_accesses::total    167854072                       # number of demand (read+write) accesses
system.cpu.dcache.overall_accesses::.cpu.data    167854072                       # number of overall (read+write) accesses
system.cpu.dcache.overall_accesses::total    167854072                       # number of overall (read+write) accesses
system.cpu.dcache.demand_miss_rate::.cpu.data     0.003262                       # miss rate for demand accesses
system.cpu.dcache.demand_miss_rate::total     0.003262                       # miss rate for demand accesses
system.cpu.dcache.overall_miss_rate::.cpu.data     0.003262                       # miss rate for overall accesses
system.cpu.dcache.overall_miss_rate::total     0.003262                       # miss rate for overall accesses
system.cpu.dcache.demand_avg_miss_latency::.cpu.data 66784.770825                       # average overall miss latency
system.cpu.dcache.demand_avg_miss_latency::total 66784.770825                       # average overall miss latency
system.cpu.dcache.overall_avg_miss_latency::.cpu.data 66784.770825                       # average overall miss latency
system.cpu.dcache.overall_avg_miss_latency::total 66784.770825                       # average overall miss latency
system.cpu.dcache.blocked_cycles::no_mshrs            0                       # number of cycles access was blocked
system.cpu.dcache.blocked_cycles::no_targets            0                       # number of cycles access was blocked
system.cpu.dcache.blocked::no_mshrs                 0                       # number of cycles access was blocked
system.cpu.dcache.blocked::no_targets               0                       # number of cycles access was blocked
system.cpu.dcache.avg_blocked_cycles::no_mshrs          nan                       # average number of cycles each access was blocked
system.cpu.dcache.avg_blocked_cycles::no_targets          nan                       # average number of cycles each access was blocked
system.cpu.dcache.writebacks::.writebacks       206241                       # number of writebacks
system.cpu.dcache.writebacks::total            206241                       # number of writebacks
system.cpu.dcache.demand_mshr_hits::.cpu.data       141844                       # number of demand (read+write) MSHR hits
system.cpu.dcache.demand_mshr_hits::total       141844                       # number of demand (read+write) MSHR hits
system.cpu.dcache.overall_mshr_hits::.cpu.data       141844                       # number of overall MSHR hits
system.cpu.dcache.overall_mshr_hits::total       141844                       # number of overall MSHR hits
system.cpu.dcache.demand_mshr_misses::.cpu.data       405684                       # number of demand (read+write) MSHR misses
system.cpu.dcache.demand_mshr_misses::total       405684                       # number of demand (read+write) MSHR misses
system.cpu.dcache.overall_mshr_misses::.cpu.data       405684                       # number of overall MSHR misses
system.cpu.dcache.overall_mshr_misses::total       405684                       # number of overall MSHR misses
system.cpu.dcache.overall_mshr_uncacheable_misses::.cpu.data         1648                       # number of overall MSHR uncacheable misses
system.cpu.dcache.overall_mshr_uncacheable_misses::total         1648                       # number of overall MSHR uncacheable misses
system.cpu.dcache.demand_mshr_miss_latency::.cpu.data  27216283000                       # number of demand (read+write) MSHR miss cycles
system.cpu.dcache.demand_mshr_miss_latency::total  27216283000                       # number of demand (read+write) MSHR miss cycles
system.cpu.dcache.overall_mshr_miss_latency::.cpu.data  27216283000                       # number of overall MSHR miss cycles
system.cpu.dcache.overall_mshr_miss_latency::total  27216283000                       # number of overall MSHR miss cycles
system.cpu.dcache.overall_mshr_uncacheable_latency::.cpu.data     87671500                       # number of overall MSHR uncacheable cycles
system.cpu.dcache.overall_mshr_uncacheable_latency::total     87671500                       # number of overall MSHR uncacheable cycles
system.cpu.dcache.demand_mshr_miss_rate::.cpu.data     0.002417                       # mshr miss rate for demand accesses
system.cpu.dcache.demand_mshr_miss_rate::total     0.002417                       # mshr miss rate for demand accesses
system.cpu.dcache.overall_mshr_miss_rate::.cpu.data     0.002417                       # mshr miss rate for overall accesses
system.cpu.dcache.overall_mshr_miss_rate::total     0.002417                       # mshr miss rate for overall accesses
system.cpu.dcache.demand_avg_mshr_miss_latency::.cpu.data 67087.395608                       # average overall mshr miss latency
system.cpu.dcache.demand_avg_mshr_miss_latency::total 67087.395608                       # average overall mshr miss latency
system.cpu.dcache.overall_avg_mshr_miss_latency::.cpu.data 67087.395608                       # average overall mshr miss latency
system.cpu.dcache.overall_avg_mshr_miss_latency::total 67087.395608                       # average overall mshr miss latency
system.cpu.dcache.overall_avg_mshr_uncacheable_latency::.cpu.data 53198.725728                       # average overall mshr uncacheable latency
system.cpu.dcache.overall_avg_mshr_uncacheable_latency::total 53198.725728                       # average overall mshr uncacheable latency
system.cpu.dcache.replacements                 407103                       # number of replacements
system.cpu.dcache.ReadReq_hits::.cpu.data    118339707                       # number of ReadReq hits
system.cpu.dcache.ReadReq_hits::total       118339707                       # number of ReadReq hits
system.cpu.dcache.ReadReq_misses::.cpu.data       306522                       # number of ReadReq misses
system.cpu.dcache.ReadReq_misses::total        306522                       # number of ReadReq misses
system.cpu.dcache.ReadReq_miss_latency::.cpu.data  21224219500                       # number of ReadReq miss cycles
system.cpu.dcache.ReadReq_miss_latency::total  21224219500                       # number of ReadReq miss cycles
system.cpu.dcache.ReadReq_accesses::.cpu.data    118646229                       # number of ReadReq accesses(hits+misses)
system.cpu.dcache.ReadReq_accesses::total    118646229                       # number of ReadReq accesses(hits+misses)
system.cpu.dcache.ReadReq_miss_rate::.cpu.data     0.002583                       # miss rate for ReadReq accesses
system.cpu.dcache.ReadReq_miss_rate::total     0.002583                       # miss rate for ReadReq accesses
system.cpu.dcache.ReadReq_avg_miss_latency::.cpu.data 69242.075610                       # average ReadReq miss latency
system.cpu.dcache.ReadReq_avg_miss_latency::total 69242.075610                       # average ReadReq miss latency
system.cpu.dcache.ReadReq_mshr_hits::.cpu.data        34941                       # number of ReadReq MSHR hits
system.cpu.dcache.ReadReq_mshr_hits::total        34941                       # number of ReadReq MSHR hits
system.cpu.dcache.ReadReq_mshr_misses::.cpu.data       271581                       # number of ReadReq MSHR misses
system.cpu.dcache.ReadReq_mshr_misses::total       271581                       # number of ReadReq MSHR misses
system.cpu.dcache.ReadReq_mshr_uncacheable::.cpu.data          445                       # number of ReadReq MSHR uncacheable
system.cpu.dcache.ReadReq_mshr_uncacheable::total          445                       # number of ReadReq MSHR uncacheable
system.cpu.dcache.ReadReq_mshr_miss_latency::.cpu.data  18612908000                       # number of ReadReq MSHR miss cycles
system.cpu.dcache.ReadReq_mshr_miss_latency::total  18612908000                       # number of ReadReq MSHR miss cycles
system.cpu.dcache.ReadReq_mshr_uncacheable_latency::.cpu.data     87671500                       # number of ReadReq MSHR uncacheable cycles
system.cpu.dcache.ReadReq_mshr_uncacheable_latency::total     87671500                       # number of ReadReq MSHR uncacheable cycles
system.cpu.dcache.ReadReq_mshr_miss_rate::.cpu.data     0.002289                       # mshr miss rate for ReadReq accesses
system.cpu.dcache.ReadReq_mshr_miss_rate::total     0.002289                       # mshr miss rate for ReadReq accesses
system.cpu.dcache.ReadReq_avg_mshr_miss_latency::.cpu.data 68535.383550                       # average ReadReq mshr miss latency
system.cpu.dcache.ReadReq_avg_mshr_miss_latency::total 68535.383550                       # average ReadReq mshr miss latency
system.cpu.dcache.ReadReq_avg_mshr_uncacheable_latency::.cpu.data 197014.606742                       # average ReadReq mshr uncacheable latency
system.cpu.dcache.ReadReq_avg_mshr_uncacheable_latency::total 197014.606742                       # average ReadReq mshr uncacheable latency
system.cpu.dcache.WriteReq_hits::.cpu.data     48966837                       # number of WriteReq hits
system.cpu.dcache.WriteReq_hits::total       48966837                       # number of WriteReq hits
system.cpu.dcache.WriteReq_misses::.cpu.data       241006                       # number of WriteReq misses
system.cpu.dcache.WriteReq_misses::total       241006                       # number of WriteReq misses
system.cpu.dcache.WriteReq_miss_latency::.cpu.data  15342312500                       # number of WriteReq miss cycles
system.cpu.dcache.WriteReq_miss_latency::total  15342312500                       # number of WriteReq miss cycles
system.cpu.dcache.WriteReq_accesses::.cpu.data     49207843                       # number of WriteReq accesses(hits+misses)
system.cpu.dcache.WriteReq_accesses::total     49207843                       # number of WriteReq accesses(hits+misses)
system.cpu.dcache.WriteReq_miss_rate::.cpu.data     0.004898                       # miss rate for WriteReq accesses
system.cpu.dcache.WriteReq_miss_rate::total     0.004898                       # miss rate for WriteReq accesses
system.cpu.dcache.WriteReq_avg_miss_latency::.cpu.data 63659.462835                       # average WriteReq miss latency
system.cpu.dcache.WriteReq_avg_miss_latency::total 63659.462835                       # average WriteReq miss latency
system.cpu.dcache.WriteReq_mshr_hits::.cpu.data       106903                       # number of WriteReq MSHR hits
system.cpu.dcache.WriteReq_mshr_hits::total       106903                       # number of WriteReq MSHR hits
system.cpu.dcache.WriteReq_mshr_misses::.cpu.data       134103                       # number of WriteReq MSHR misses
system.cpu.dcache.WriteReq_mshr_misses::total       134103                       # number of WriteReq MSHR misses
system.cpu.dcache.WriteReq_mshr_uncacheable::.cpu.data         1203                       # number of WriteReq MSHR uncacheable
system.cpu.dcache.WriteReq_mshr_uncacheable::total         1203                       # number of WriteReq MSHR uncacheable
system.cpu.dcache.WriteReq_mshr_miss_latency::.cpu.data   8603375000                       # number of WriteReq MSHR miss cycles
system.cpu.dcache.WriteReq_mshr_miss_latency::total   8603375000                       # number of WriteReq MSHR miss cycles
system.cpu.dcache.WriteReq_mshr_miss_rate::.cpu.data     0.002725                       # mshr miss rate for WriteReq accesses
system.cpu.dcache.WriteReq_mshr_miss_rate::total     0.002725                       # mshr miss rate for WriteReq accesses
system.cpu.dcache.WriteReq_avg_mshr_miss_latency::.cpu.data 64154.977890                       # average WriteReq mshr miss latency
system.cpu.dcache.WriteReq_avg_mshr_miss_latency::total 64154.977890                       # average WriteReq mshr miss latency
system.cpu.dcache.LoadLockedReq_hits::.cpu.data        10799                       # number of LoadLockedReq hits
system.cpu.dcache.LoadLockedReq_hits::total        10799                       # number of LoadLockedReq hits
system.cpu.dcache.LoadLockedReq_misses::.cpu.data         1424                       # number of LoadLockedReq misses
system.cpu.dcache.LoadLockedReq_misses::total         1424                       # number of LoadLockedReq misses
system.cpu.dcache.LoadLockedReq_miss_latency::.cpu.data    105300000                       # number of LoadLockedReq miss cycles
system.cpu.dcache.LoadLockedReq_miss_latency::total    105300000                       # number of LoadLockedReq miss cycles
system.cpu.dcache.LoadLockedReq_accesses::.cpu.data        12223                       # number of LoadLockedReq accesses(hits+misses)
system.cpu.dcache.LoadLockedReq_accesses::total        12223                       # number of LoadLockedReq accesses(hits+misses)
system.cpu.dcache.LoadLockedReq_miss_rate::.cpu.data     0.116502                       # miss rate for LoadLockedReq accesses
system.cpu.dcache.LoadLockedReq_miss_rate::total     0.116502                       # miss rate for LoadLockedReq accesses
system.cpu.dcache.LoadLockedReq_avg_miss_latency::.cpu.data 73946.629213                       # average LoadLockedReq miss latency
system.cpu.dcache.LoadLockedReq_avg_miss_latency::total 73946.629213                       # average LoadLockedReq miss latency
system.cpu.dcache.LoadLockedReq_mshr_hits::.cpu.data            1                       # number of LoadLockedReq MSHR hits
system.cpu.dcache.LoadLockedReq_mshr_hits::total            1                       # number of LoadLockedReq MSHR hits
system.cpu.dcache.LoadLockedReq_mshr_misses::.cpu.data         1423                       # number of LoadLockedReq MSHR misses
system.cpu.dcache.LoadLockedReq_mshr_misses::total         1423                       # number of LoadLockedReq MSHR misses
system.cpu.dcache.LoadLockedReq_mshr_miss_latency::.cpu.data    103801000                       # number of LoadLockedReq MSHR miss cycles
system.cpu.dcache.LoadLockedReq_mshr_miss_latency::total    103801000                       # number of LoadLockedReq MSHR miss cycles
system.cpu.dcache.LoadLockedReq_mshr_miss_rate::.cpu.data     0.116420                       # mshr miss rate for LoadLockedReq accesses
system.cpu.dcache.LoadLockedReq_mshr_miss_rate::total     0.116420                       # mshr miss rate for LoadLockedReq accesses
system.cpu.dcache.LoadLockedReq_avg_mshr_miss_latency::.cpu.data 72945.186226                       # average LoadLockedReq mshr miss latency
system.cpu.dcache.LoadLockedReq_avg_mshr_miss_latency::total 72945.186226                       # average LoadLockedReq mshr miss latency
system.cpu.dcache.StoreCondReq_hits::.cpu.data        12201                       # number of StoreCondReq hits
system.cpu.dcache.StoreCondReq_hits::total        12201                       # number of StoreCondReq hits
system.cpu.dcache.StoreCondReq_accesses::.cpu.data        12201                       # number of StoreCondReq accesses(hits+misses)
system.cpu.dcache.StoreCondReq_accesses::total        12201                       # number of StoreCondReq accesses(hits+misses)
system.cpu.dcache.tags.pwrStateResidencyTicks::UNDEFINED 638343406500                       # Cumulative time (in ticks) in various power states
system.cpu.dcache.tags.tagsinuse                 1024                       # Cycle average of tags in use
system.cpu.dcache.tags.total_refs           167798890                       # Total number of references to valid blocks.
system.cpu.dcache.tags.sampled_refs            408127                       # Sample count of references to valid blocks.
system.cpu.dcache.tags.avg_refs            411.143811                       # Average number of references to valid blocks.
system.cpu.dcache.tags.warmup_cycle                 0                       # Cycle when the warmup percentage was hit.
system.cpu.dcache.tags.occ_blocks::.cpu.data         1024                       # Average occupied blocks per requestor
system.cpu.dcache.tags.occ_percent::.cpu.data            1                       # Average percentage of cache occupancy
system.cpu.dcache.tags.occ_percent::total            1                       # Average percentage of cache occupancy
system.cpu.dcache.tags.occ_task_id_blocks::1024         1024                       # Occupied blocks per task id
system.cpu.dcache.tags.age_task_id_blocks_1024::0           13                       # Occupied blocks per task id
system.cpu.dcache.tags.age_task_id_blocks_1024::1          198                       # Occupied blocks per task id
system.cpu.dcache.tags.age_task_id_blocks_1024::2          759                       # Occupied blocks per task id
system.cpu.dcache.tags.age_task_id_blocks_1024::3           45                       # Occupied blocks per task id
system.cpu.dcache.tags.age_task_id_blocks_1024::4            9                       # Occupied blocks per task id
system.cpu.dcache.tags.occ_task_id_percent::1024            1                       # Percentage of cache occupancy per task id
system.cpu.dcache.tags.tag_accesses         336164095                       # Number of tag accesses
system.cpu.dcache.tags.data_accesses        336164095                       # Number of data accesses

---------- End Simulation Statistics   ----------
