
---------- Begin Simulation Statistics ----------
final_tick                               2541826278500                       # Number of ticks from beginning of simulation (restored from checkpoints and never reset)
host_inst_rate                                 210713                       # Simulator instruction rate (inst/s)
host_mem_usage                                 744064                       # Number of bytes of host memory used
host_op_rate                                   210711                       # Simulator op (including micro ops) rate (op/s)
host_seconds                                    19.91                       # Real time elapsed on the host
host_tick_rate                              593451732                       # Simulator tick rate (ticks/s)
sim_freq                                 1000000000000                       # Frequency of simulated ticks
sim_insts                                     4195533                       # Number of instructions simulated
sim_ops                                       4195533                       # Number of ops (including micro ops) simulated
sim_seconds                                  0.011816                       # Number of seconds simulated
sim_ticks                                 11816433500                       # Number of ticks simulated
system.cpu.branchPred.BTBCorrect                    0                       # Number of correct BTB predictions (this stat may not work properly.
system.cpu.branchPred.BTBHitPct             44.623603                       # BTB Hit Percentage
system.cpu.branchPred.BTBHits                  377650                       # Number of BTB hits
system.cpu.branchPred.BTBLookups               846301                       # Number of BTB lookups
system.cpu.branchPred.RASInCorrect               2410                       # Number of incorrect RAS predictions.
system.cpu.branchPred.condIncorrect             74667                       # Number of conditional branches incorrect
system.cpu.branchPred.condPredicted            802946                       # Number of conditional branches predicted
system.cpu.branchPred.indirectHits              53188                       # Number of indirect target hits.
system.cpu.branchPred.indirectLookups          278703                       # Number of indirect predictor lookups.
system.cpu.branchPred.indirectMisses           225515                       # Number of indirect misses.
system.cpu.branchPred.lookups                  974728                       # Number of BP lookups
system.cpu.branchPred.usedRAS                   63837                       # Number of times the RAS was used to get a target.
system.cpu.branchPredindirectMispredicted        26923                       # Number of mispredicted indirect branches.
system.cpu.committedInsts                     4195533                       # Number of instructions committed
system.cpu.committedOps                       4195533                       # Number of ops (including micro ops) committed
system.cpu.cpi                               5.629605                       # CPI: cycles per instruction
system.cpu.discardedOps                        188833                       # Number of ops (including micro ops) which were discarded before commit
system.cpu.dtb.data_accesses                   606899                       # DTB accesses
system.cpu.dtb.data_acv                           131                       # DTB access violations
system.cpu.dtb.data_hits                      1451459                       # DTB hits
system.cpu.dtb.data_misses                       7706                       # DTB misses
system.cpu.dtb.fetch_accesses                       0                       # ITB accesses
system.cpu.dtb.fetch_acv                            0                       # ITB acv
system.cpu.dtb.fetch_hits                           0                       # ITB hits
system.cpu.dtb.fetch_misses                         0                       # ITB misses
system.cpu.dtb.read_accesses                   405425                       # DTB read accesses
system.cpu.dtb.read_acv                            43                       # DTB read access violations
system.cpu.dtb.read_hits                       848798                       # DTB read hits
system.cpu.dtb.read_misses                       6916                       # DTB read misses
system.cpu.dtb.write_accesses                  201474                       # DTB write accesses
system.cpu.dtb.write_acv                           88                       # DTB write access violations
system.cpu.dtb.write_hits                      602661                       # DTB write hits
system.cpu.dtb.write_misses                       790                       # DTB write misses
system.cpu.fetch2.amo_instructions                  0                       # Number of memory atomic instructions successfully decoded
system.cpu.fetch2.fp_instructions               18033                       # Number of floating point instructions successfully decoded
system.cpu.fetch2.int_instructions            3372479                       # Number of integer instructions successfully decoded
system.cpu.fetch2.load_instructions           1027208                       # Number of memory load instructions successfully decoded
system.cpu.fetch2.store_instructions           658796                       # Number of memory store instructions successfully decoded
system.cpu.fetch2.vec_instructions                  0                       # Number of SIMD instructions successfully decoded
system.cpu.idleCycles                        16728809                       # Total number of cycles that the object has spent stopped
system.cpu.ipc                               0.177632                       # IPC: instructions per cycle
system.cpu.itb.data_accesses                        0                       # DTB accesses
system.cpu.itb.data_acv                             0                       # DTB access violations
system.cpu.itb.data_hits                            0                       # DTB hits
system.cpu.itb.data_misses                          0                       # DTB misses
system.cpu.itb.fetch_accesses                  954000                       # ITB accesses
system.cpu.itb.fetch_acv                          509                       # ITB acv
system.cpu.itb.fetch_hits                      946704                       # ITB hits
system.cpu.itb.fetch_misses                      7296                       # ITB misses
system.cpu.itb.read_accesses                        0                       # DTB read accesses
system.cpu.itb.read_acv                             0                       # DTB read access violations
system.cpu.itb.read_hits                            0                       # DTB read hits
system.cpu.itb.read_misses                          0                       # DTB read misses
system.cpu.itb.write_accesses                       0                       # DTB write accesses
system.cpu.itb.write_acv                            0                       # DTB write access violations
system.cpu.itb.write_hits                           0                       # DTB write hits
system.cpu.itb.write_misses                         0                       # DTB write misses
system.cpu.kern.callpal::swpctx                   574      9.44%      9.44% # number of callpals executed
system.cpu.kern.callpal::tbi                       25      0.41%      9.85% # number of callpals executed
system.cpu.kern.callpal::swpipl                  4217     69.36%     79.21% # number of callpals executed
system.cpu.kern.callpal::rdps                      48      0.79%     80.00% # number of callpals executed
system.cpu.kern.callpal::wrusp                      4      0.07%     80.07% # number of callpals executed
system.cpu.kern.callpal::rdusp                      3      0.05%     80.12% # number of callpals executed
system.cpu.kern.callpal::rti                      896     14.74%     94.85% # number of callpals executed
system.cpu.kern.callpal::callsys                  235      3.87%     98.72% # number of callpals executed
system.cpu.kern.callpal::imb                       78      1.28%    100.00% # number of callpals executed
system.cpu.kern.callpal::total                   6080                       # number of callpals executed
system.cpu.kern.inst.arm                            0                       # number of arm instructions executed
system.cpu.kern.inst.hwrei                      14423                       # number of hwrei instructions executed
system.cpu.kern.inst.quiesce                        9                       # number of quiesce instructions executed
system.cpu.kern.ipl_count::0                     2433     47.43%     47.43% # number of times we switched to this ipl
system.cpu.kern.ipl_count::21                       5      0.10%     47.52% # number of times we switched to this ipl
system.cpu.kern.ipl_count::22                      12      0.23%     47.76% # number of times we switched to this ipl
system.cpu.kern.ipl_count::31                    2680     52.24%    100.00% # number of times we switched to this ipl
system.cpu.kern.ipl_count::total                 5130                       # number of times we switched to this ipl
system.cpu.kern.ipl_good::0                      2420     49.82%     49.82% # number of times we switched to this ipl from a different ipl
system.cpu.kern.ipl_good::21                        5      0.10%     49.93% # number of times we switched to this ipl from a different ipl
system.cpu.kern.ipl_good::22                       12      0.25%     50.18% # number of times we switched to this ipl from a different ipl
system.cpu.kern.ipl_good::31                     2420     49.82%    100.00% # number of times we switched to this ipl from a different ipl
system.cpu.kern.ipl_good::total                  4857                       # number of times we switched to this ipl from a different ipl
system.cpu.kern.ipl_ticks::0              10912002000     92.31%     92.31% # number of cycles we spent at this ipl
system.cpu.kern.ipl_ticks::21                 8988500      0.08%     92.39% # number of cycles we spent at this ipl
system.cpu.kern.ipl_ticks::22                18132500      0.15%     92.54% # number of cycles we spent at this ipl
system.cpu.kern.ipl_ticks::31               881662000      7.46%    100.00% # number of cycles we spent at this ipl
system.cpu.kern.ipl_ticks::total          11820785000                       # number of cycles we spent at this ipl
system.cpu.kern.ipl_used::0                  0.994657                       # fraction of swpipl calls that actually changed the ipl
system.cpu.kern.ipl_used::21                        1                       # fraction of swpipl calls that actually changed the ipl
system.cpu.kern.ipl_used::22                        1                       # fraction of swpipl calls that actually changed the ipl
system.cpu.kern.ipl_used::31                 0.902985                       # fraction of swpipl calls that actually changed the ipl
system.cpu.kern.ipl_used::total              0.946784                       # fraction of swpipl calls that actually changed the ipl
system.cpu.kern.mode_good::kernel                 870                      
system.cpu.kern.mode_good::user                   870                      
system.cpu.kern.mode_good::idle                     0                      
system.cpu.kern.mode_switch::kernel              1470                       # number of protection mode switches
system.cpu.kern.mode_switch::user                 870                       # number of protection mode switches
system.cpu.kern.mode_switch::idle                   0                       # number of protection mode switches
system.cpu.kern.mode_switch_good::kernel     0.591837                       # fraction of useful protection mode switches
system.cpu.kern.mode_switch_good::user              1                       # fraction of useful protection mode switches
system.cpu.kern.mode_switch_good::idle            nan                       # fraction of useful protection mode switches
system.cpu.kern.mode_switch_good::total      0.743590                       # fraction of useful protection mode switches
system.cpu.kern.mode_ticks::kernel         7989181500     67.59%     67.59% # number of ticks spent at the given mode
system.cpu.kern.mode_ticks::user           3831603500     32.41%    100.00% # number of ticks spent at the given mode
system.cpu.kern.mode_ticks::idle                    0      0.00%    100.00% # number of ticks spent at the given mode
system.cpu.kern.swap_context                      574                       # number of times the context was actually changed
system.cpu.numCycles                         23619194                       # number of cpu cycles simulated
system.cpu.numFetchSuspends                         9                       # Number of times Execute suspended instruction fetching
system.cpu.numWorkItemsCompleted                    0                       # number of work items this cpu completed
system.cpu.numWorkItemsStarted                      0                       # number of work items this cpu started
system.cpu.op_class_0::No_OpClass               85414      2.04%      2.04% # Class of committed instruction
system.cpu.op_class_0::IntAlu                 2541115     60.57%     62.60% # Class of committed instruction
system.cpu.op_class_0::IntMult                   3673      0.09%     62.69% # Class of committed instruction
system.cpu.op_class_0::IntDiv                       0      0.00%     62.69% # Class of committed instruction
system.cpu.op_class_0::FloatAdd                  8286      0.20%     62.89% # Class of committed instruction
system.cpu.op_class_0::FloatCmp                     0      0.00%     62.89% # Class of committed instruction
system.cpu.op_class_0::FloatCvt                     0      0.00%     62.89% # Class of committed instruction
system.cpu.op_class_0::FloatMult                    0      0.00%     62.89% # Class of committed instruction
system.cpu.op_class_0::FloatMultAcc                 0      0.00%     62.89% # Class of committed instruction
system.cpu.op_class_0::FloatDiv                  1593      0.04%     62.93% # Class of committed instruction
system.cpu.op_class_0::FloatMisc                    0      0.00%     62.93% # Class of committed instruction
system.cpu.op_class_0::FloatSqrt                    0      0.00%     62.93% # Class of committed instruction
system.cpu.op_class_0::SimdAdd                      0      0.00%     62.93% # Class of committed instruction
system.cpu.op_class_0::SimdAddAcc                   0      0.00%     62.93% # Class of committed instruction
system.cpu.op_class_0::SimdAlu                      0      0.00%     62.93% # Class of committed instruction
system.cpu.op_class_0::SimdCmp                      0      0.00%     62.93% # Class of committed instruction
system.cpu.op_class_0::SimdCvt                      0      0.00%     62.93% # Class of committed instruction
system.cpu.op_class_0::SimdMisc                     0      0.00%     62.93% # Class of committed instruction
system.cpu.op_class_0::SimdMult                     0      0.00%     62.93% # Class of committed instruction
system.cpu.op_class_0::SimdMultAcc                  0      0.00%     62.93% # Class of committed instruction
system.cpu.op_class_0::SimdShift                    0      0.00%     62.93% # Class of committed instruction
system.cpu.op_class_0::SimdShiftAcc                 0      0.00%     62.93% # Class of committed instruction
system.cpu.op_class_0::SimdDiv                      0      0.00%     62.93% # Class of committed instruction
system.cpu.op_class_0::SimdSqrt                     0      0.00%     62.93% # Class of committed instruction
system.cpu.op_class_0::SimdFloatAdd                 0      0.00%     62.93% # Class of committed instruction
system.cpu.op_class_0::SimdFloatAlu                 0      0.00%     62.93% # Class of committed instruction
system.cpu.op_class_0::SimdFloatCmp                 0      0.00%     62.93% # Class of committed instruction
system.cpu.op_class_0::SimdFloatCvt                 0      0.00%     62.93% # Class of committed instruction
system.cpu.op_class_0::SimdFloatDiv                 0      0.00%     62.93% # Class of committed instruction
system.cpu.op_class_0::SimdFloatMisc                0      0.00%     62.93% # Class of committed instruction
system.cpu.op_class_0::SimdFloatMult                0      0.00%     62.93% # Class of committed instruction
system.cpu.op_class_0::SimdFloatMultAcc             0      0.00%     62.93% # Class of committed instruction
system.cpu.op_class_0::SimdFloatSqrt                0      0.00%     62.93% # Class of committed instruction
system.cpu.op_class_0::SimdReduceAdd                0      0.00%     62.93% # Class of committed instruction
system.cpu.op_class_0::SimdReduceAlu                0      0.00%     62.93% # Class of committed instruction
system.cpu.op_class_0::SimdReduceCmp                0      0.00%     62.93% # Class of committed instruction
system.cpu.op_class_0::SimdFloatReduceAdd            0      0.00%     62.93% # Class of committed instruction
system.cpu.op_class_0::SimdFloatReduceCmp            0      0.00%     62.93% # Class of committed instruction
system.cpu.op_class_0::SimdAes                      0      0.00%     62.93% # Class of committed instruction
system.cpu.op_class_0::SimdAesMix                   0      0.00%     62.93% # Class of committed instruction
system.cpu.op_class_0::SimdSha1Hash                 0      0.00%     62.93% # Class of committed instruction
system.cpu.op_class_0::SimdSha1Hash2                0      0.00%     62.93% # Class of committed instruction
system.cpu.op_class_0::SimdSha256Hash               0      0.00%     62.93% # Class of committed instruction
system.cpu.op_class_0::SimdSha256Hash2              0      0.00%     62.93% # Class of committed instruction
system.cpu.op_class_0::SimdShaSigma2                0      0.00%     62.93% # Class of committed instruction
system.cpu.op_class_0::SimdShaSigma3                0      0.00%     62.93% # Class of committed instruction
system.cpu.op_class_0::SimdPredAlu                  0      0.00%     62.93% # Class of committed instruction
system.cpu.op_class_0::MemRead                 839259     20.00%     82.93% # Class of committed instruction
system.cpu.op_class_0::MemWrite                592574     14.12%     97.05% # Class of committed instruction
system.cpu.op_class_0::FloatMemRead              9988      0.24%     97.29% # Class of committed instruction
system.cpu.op_class_0::FloatMemWrite             8788      0.21%     97.50% # Class of committed instruction
system.cpu.op_class_0::IprAccess               104843      2.50%    100.00% # Class of committed instruction
system.cpu.op_class_0::InstPrefetch                 0      0.00%    100.00% # Class of committed instruction
system.cpu.op_class_0::total                  4195533                       # Class of committed instruction
system.cpu.quiesceCycles                        13673                       # Total number of cycles that CPU has spent quiesced or waiting for an interrupt
system.cpu.tickCycles                         6890385                       # Number of cycles that the object actually ticked
system.disk0.dma_read_bytes                         0                       # Number of bytes transfered via DMA reads (not PRD).
system.disk0.dma_read_full_pages                    0                       # Number of full page size DMA reads (not PRD).
system.disk0.dma_read_txs                           0                       # Number of DMA read transactions (not PRD).
system.disk0.dma_write_bytes                    12288                       # Number of bytes transfered via DMA writes.
system.disk0.dma_write_full_pages                   0                       # Number of full page size DMA writes.
system.disk0.dma_write_txs                          3                       # Number of DMA write transactions.
system.disk2.dma_read_bytes                         0                       # Number of bytes transfered via DMA reads (not PRD).
system.disk2.dma_read_full_pages                    0                       # Number of full page size DMA reads (not PRD).
system.disk2.dma_read_txs                           0                       # Number of DMA read transactions (not PRD).
system.disk2.dma_write_bytes                        0                       # Number of bytes transfered via DMA writes.
system.disk2.dma_write_full_pages                   0                       # Number of full page size DMA writes.
system.disk2.dma_write_txs                          0                       # Number of DMA write transactions.
system.membus.snoop_filter.hit_multi_requests          437                       # Number of requests hitting in the snoop filter with multiple (>1) holders of the requested data.
system.membus.snoop_filter.hit_multi_snoops            0                       # Number of snoops hitting in the snoop filter with multiple (>1) holders of the requested data.
system.membus.snoop_filter.hit_single_requests       155642                       # Number of requests hitting in the snoop filter with a single holder of the requested data.
system.membus.snoop_filter.hit_single_snoops            0                       # Number of snoops hitting in the snoop filter with a single holder of the requested data.
system.membus.snoop_filter.tot_requests        312886                       # Total number of requests made to the snoop filter.
system.membus.snoop_filter.tot_snoops               0                       # Total number of snoops made to the snoop filter.
system.tsunami.ethernet.coalescedRxDesc           nan                       # average number of RxDesc's coalesced into each post
system.tsunami.ethernet.coalescedRxIdle           nan                       # average number of RxIdle's coalesced into each post
system.tsunami.ethernet.coalescedRxOk             nan                       # average number of RxOk's coalesced into each post
system.tsunami.ethernet.coalescedRxOrn            nan                       # average number of RxOrn's coalesced into each post
system.tsunami.ethernet.coalescedSwi              nan                       # average number of Swi's coalesced into each post
system.tsunami.ethernet.coalescedTotal            nan                       # average number of interrupts coalesced into each post
system.tsunami.ethernet.coalescedTxDesc           nan                       # average number of TxDesc's coalesced into each post
system.tsunami.ethernet.coalescedTxIdle           nan                       # average number of TxIdle's coalesced into each post
system.tsunami.ethernet.coalescedTxOk             nan                       # average number of TxOk's coalesced into each post
system.tsunami.ethernet.descDMAReads                0                       # Number of descriptors the device read w/ DMA
system.tsunami.ethernet.descDMAWrites               0                       # Number of descriptors the device wrote w/ DMA
system.tsunami.ethernet.descDmaReadBytes            0                       # number of descriptor bytes read w/ DMA
system.tsunami.ethernet.descDmaWriteBytes            0                       # number of descriptor bytes write w/ DMA
system.tsunami.ethernet.droppedPackets              0                       # number of packets dropped
system.tsunami.ethernet.postedInterrupts            0                       # number of posts to CPU
system.tsunami.ethernet.postedRxDesc                0                       # number of RxDesc interrupts posted to CPU
system.tsunami.ethernet.postedRxIdle                0                       # number of rxIdle interrupts posted to CPU
system.tsunami.ethernet.postedRxOk                  0                       # number of RxOk interrupts posted to CPU
system.tsunami.ethernet.postedRxOrn                 0                       # number of RxOrn posted to CPU
system.tsunami.ethernet.postedSwi                   0                       # number of software interrupts posted to CPU
system.tsunami.ethernet.postedTxDesc                0                       # number of TxDesc interrupts posted to CPU
system.tsunami.ethernet.postedTxIdle                0                       # number of TxIdle interrupts posted to CPU
system.tsunami.ethernet.postedTxOk                  0                       # number of TxOk interrupts posted to CPU
system.tsunami.ethernet.totalRxDesc                 0                       # total number of RxDesc written to ISR
system.tsunami.ethernet.totalRxIdle                 0                       # total number of RxIdle written to ISR
system.tsunami.ethernet.totalRxOk                   0                       # total number of RxOk written to ISR
system.tsunami.ethernet.totalRxOrn                  0                       # total number of RxOrn written to ISR
system.tsunami.ethernet.totalSwi                    0                       # total number of Swi written to ISR
system.tsunami.ethernet.totalTxDesc                 0                       # total number of TxDesc written to ISR
system.tsunami.ethernet.totalTxIdle                 0                       # total number of TxIdle written to ISR
system.tsunami.ethernet.totalTxOk                   0                       # total number of TxOk written to ISR
system.bridge.pwrStateResidencyTicks::UNDEFINED 2541826278500                       # Cumulative time (in ticks) in various power states
system.voltage_domain.voltage                       1                       # Voltage in Volts
system.iocache.pwrStateResidencyTicks::UNDEFINED 2541826278500                       # Cumulative time (in ticks) in various power states
system.iocache.demand_misses::.tsunami.ide          195                       # number of demand (read+write) misses
system.iocache.demand_misses::total               195                       # number of demand (read+write) misses
system.iocache.overall_misses::.tsunami.ide          195                       # number of overall misses
system.iocache.overall_misses::total              195                       # number of overall misses
system.iocache.demand_miss_latency::.tsunami.ide     22804456                       # number of demand (read+write) miss cycles
system.iocache.demand_miss_latency::total     22804456                       # number of demand (read+write) miss cycles
system.iocache.overall_miss_latency::.tsunami.ide     22804456                       # number of overall miss cycles
system.iocache.overall_miss_latency::total     22804456                       # number of overall miss cycles
system.iocache.demand_accesses::.tsunami.ide          195                       # number of demand (read+write) accesses
system.iocache.demand_accesses::total             195                       # number of demand (read+write) accesses
system.iocache.overall_accesses::.tsunami.ide          195                       # number of overall (read+write) accesses
system.iocache.overall_accesses::total            195                       # number of overall (read+write) accesses
system.iocache.demand_miss_rate::.tsunami.ide            1                       # miss rate for demand accesses
system.iocache.demand_miss_rate::total              1                       # miss rate for demand accesses
system.iocache.overall_miss_rate::.tsunami.ide            1                       # miss rate for overall accesses
system.iocache.overall_miss_rate::total             1                       # miss rate for overall accesses
system.iocache.demand_avg_miss_latency::.tsunami.ide 116945.928205                       # average overall miss latency
system.iocache.demand_avg_miss_latency::total 116945.928205                       # average overall miss latency
system.iocache.overall_avg_miss_latency::.tsunami.ide 116945.928205                       # average overall miss latency
system.iocache.overall_avg_miss_latency::total 116945.928205                       # average overall miss latency
system.iocache.blocked_cycles::no_mshrs             0                       # number of cycles access was blocked
system.iocache.blocked_cycles::no_targets            0                       # number of cycles access was blocked
system.iocache.blocked::no_mshrs                    0                       # number of cycles access was blocked
system.iocache.blocked::no_targets                  0                       # number of cycles access was blocked
system.iocache.avg_blocked_cycles::no_mshrs          nan                       # average number of cycles each access was blocked
system.iocache.avg_blocked_cycles::no_targets          nan                       # average number of cycles each access was blocked
system.iocache.writebacks::.writebacks            176                       # number of writebacks
system.iocache.writebacks::total                  176                       # number of writebacks
system.iocache.demand_mshr_misses::.tsunami.ide          195                       # number of demand (read+write) MSHR misses
system.iocache.demand_mshr_misses::total          195                       # number of demand (read+write) MSHR misses
system.iocache.overall_mshr_misses::.tsunami.ide          195                       # number of overall MSHR misses
system.iocache.overall_mshr_misses::total          195                       # number of overall MSHR misses
system.iocache.demand_mshr_miss_latency::.tsunami.ide     13042489                       # number of demand (read+write) MSHR miss cycles
system.iocache.demand_mshr_miss_latency::total     13042489                       # number of demand (read+write) MSHR miss cycles
system.iocache.overall_mshr_miss_latency::.tsunami.ide     13042489                       # number of overall MSHR miss cycles
system.iocache.overall_mshr_miss_latency::total     13042489                       # number of overall MSHR miss cycles
system.iocache.demand_mshr_miss_rate::.tsunami.ide            1                       # mshr miss rate for demand accesses
system.iocache.demand_mshr_miss_rate::total            1                       # mshr miss rate for demand accesses
system.iocache.overall_mshr_miss_rate::.tsunami.ide            1                       # mshr miss rate for overall accesses
system.iocache.overall_mshr_miss_rate::total            1                       # mshr miss rate for overall accesses
system.iocache.demand_avg_mshr_miss_latency::.tsunami.ide 66884.558974                       # average overall mshr miss latency
system.iocache.demand_avg_mshr_miss_latency::total 66884.558974                       # average overall mshr miss latency
system.iocache.overall_avg_mshr_miss_latency::.tsunami.ide 66884.558974                       # average overall mshr miss latency
system.iocache.overall_avg_mshr_miss_latency::total 66884.558974                       # average overall mshr miss latency
system.iocache.replacements                       179                       # number of replacements
system.iocache.ReadReq_misses::.tsunami.ide            3                       # number of ReadReq misses
system.iocache.ReadReq_misses::total                3                       # number of ReadReq misses
system.iocache.ReadReq_miss_latency::.tsunami.ide       349497                       # number of ReadReq miss cycles
system.iocache.ReadReq_miss_latency::total       349497                       # number of ReadReq miss cycles
system.iocache.ReadReq_accesses::.tsunami.ide            3                       # number of ReadReq accesses(hits+misses)
system.iocache.ReadReq_accesses::total              3                       # number of ReadReq accesses(hits+misses)
system.iocache.ReadReq_miss_rate::.tsunami.ide            1                       # miss rate for ReadReq accesses
system.iocache.ReadReq_miss_rate::total             1                       # miss rate for ReadReq accesses
system.iocache.ReadReq_avg_miss_latency::.tsunami.ide       116499                       # average ReadReq miss latency
system.iocache.ReadReq_avg_miss_latency::total       116499                       # average ReadReq miss latency
system.iocache.ReadReq_mshr_misses::.tsunami.ide            3                       # number of ReadReq MSHR misses
system.iocache.ReadReq_mshr_misses::total            3                       # number of ReadReq MSHR misses
system.iocache.ReadReq_mshr_miss_latency::.tsunami.ide       199497                       # number of ReadReq MSHR miss cycles
system.iocache.ReadReq_mshr_miss_latency::total       199497                       # number of ReadReq MSHR miss cycles
system.iocache.ReadReq_mshr_miss_rate::.tsunami.ide            1                       # mshr miss rate for ReadReq accesses
system.iocache.ReadReq_mshr_miss_rate::total            1                       # mshr miss rate for ReadReq accesses
system.iocache.ReadReq_avg_mshr_miss_latency::.tsunami.ide        66499                       # average ReadReq mshr miss latency
system.iocache.ReadReq_avg_mshr_miss_latency::total        66499                       # average ReadReq mshr miss latency
system.iocache.WriteLineReq_misses::.tsunami.ide          192                       # number of WriteLineReq misses
system.iocache.WriteLineReq_misses::total          192                       # number of WriteLineReq misses
system.iocache.WriteLineReq_miss_latency::.tsunami.ide     22454959                       # number of WriteLineReq miss cycles
system.iocache.WriteLineReq_miss_latency::total     22454959                       # number of WriteLineReq miss cycles
system.iocache.WriteLineReq_accesses::.tsunami.ide          192                       # number of WriteLineReq accesses(hits+misses)
system.iocache.WriteLineReq_accesses::total          192                       # number of WriteLineReq accesses(hits+misses)
system.iocache.WriteLineReq_miss_rate::.tsunami.ide            1                       # miss rate for WriteLineReq accesses
system.iocache.WriteLineReq_miss_rate::total            1                       # miss rate for WriteLineReq accesses
system.iocache.WriteLineReq_avg_miss_latency::.tsunami.ide 116952.911458                       # average WriteLineReq miss latency
system.iocache.WriteLineReq_avg_miss_latency::total 116952.911458                       # average WriteLineReq miss latency
system.iocache.WriteLineReq_mshr_misses::.tsunami.ide          192                       # number of WriteLineReq MSHR misses
system.iocache.WriteLineReq_mshr_misses::total          192                       # number of WriteLineReq MSHR misses
system.iocache.WriteLineReq_mshr_miss_latency::.tsunami.ide     12842992                       # number of WriteLineReq MSHR miss cycles
system.iocache.WriteLineReq_mshr_miss_latency::total     12842992                       # number of WriteLineReq MSHR miss cycles
system.iocache.WriteLineReq_mshr_miss_rate::.tsunami.ide            1                       # mshr miss rate for WriteLineReq accesses
system.iocache.WriteLineReq_mshr_miss_rate::total            1                       # mshr miss rate for WriteLineReq accesses
system.iocache.WriteLineReq_avg_mshr_miss_latency::.tsunami.ide 66890.583333                       # average WriteLineReq mshr miss latency
system.iocache.WriteLineReq_avg_mshr_miss_latency::total 66890.583333                       # average WriteLineReq mshr miss latency
system.iocache.tags.pwrStateResidencyTicks::UNDEFINED 2541826278500                       # Cumulative time (in ticks) in various power states
system.iocache.tags.tagsinuse                3.263502                       # Cycle average of tags in use
system.iocache.tags.total_refs                    179                       # Total number of references to valid blocks.
system.iocache.tags.sampled_refs                  179                       # Sample count of references to valid blocks.
system.iocache.tags.avg_refs                        1                       # Average number of references to valid blocks.
system.iocache.tags.warmup_cycle         2539415016000                       # Cycle when the warmup percentage was hit.
system.iocache.tags.occ_blocks::.tsunami.ide     3.263502                       # Average occupied blocks per requestor
system.iocache.tags.occ_percent::.tsunami.ide     0.203969                       # Average percentage of cache occupancy
system.iocache.tags.occ_percent::total       0.203969                       # Average percentage of cache occupancy
system.iocache.tags.occ_task_id_blocks::1023           16                       # Occupied blocks per task id
system.iocache.tags.age_task_id_blocks_1023::3           16                       # Occupied blocks per task id
system.iocache.tags.occ_task_id_percent::1023            1                       # Percentage of cache occupancy per task id
system.iocache.tags.tag_accesses                 1755                       # Number of tag accesses
system.iocache.tags.data_accesses                1755                       # Number of data accesses
system.membus.pwrStateResidencyTicks::UNDEFINED 2541826278500                       # Cumulative time (in ticks) in various power states
system.membus.trans_dist::ReadReq                 108                       # Transaction distribution
system.membus.trans_dist::ReadResp             128154                       # Transaction distribution
system.membus.trans_dist::WriteReq                 99                       # Transaction distribution
system.membus.trans_dist::WriteResp                99                       # Transaction distribution
system.membus.trans_dist::WritebackDirty        34845                       # Transaction distribution
system.membus.trans_dist::WritebackClean        86529                       # Transaction distribution
system.membus.trans_dist::CleanEvict            34246                       # Transaction distribution
system.membus.trans_dist::UpgradeReq               15                       # Transaction distribution
system.membus.trans_dist::ReadExReq             29012                       # Transaction distribution
system.membus.trans_dist::ReadExResp            29012                       # Transaction distribution
system.membus.trans_dist::ReadCleanReq          87119                       # Transaction distribution
system.membus.trans_dist::ReadSharedReq         40928                       # Transaction distribution
system.membus.trans_dist::BadAddressError            1                       # Transaction distribution
system.membus.trans_dist::InvalidateReq           192                       # Transaction distribution
system.membus.pkt_count_system.iocache.mem_side::system.mem_ctrls.port          374                       # Packet count per connected master and slave (bytes)
system.membus.pkt_count_system.iocache.mem_side::total          374                       # Packet count per connected master and slave (bytes)
system.membus.pkt_count_system.cpu.icache.mem_side::system.mem_ctrls.port       260704                       # Packet count per connected master and slave (bytes)
system.membus.pkt_count_system.cpu.icache.mem_side::total       260704                       # Packet count per connected master and slave (bytes)
system.membus.pkt_count_system.cpu.dcache.mem_side::system.bridge.slave          414                       # Packet count per connected master and slave (bytes)
system.membus.pkt_count_system.cpu.dcache.mem_side::system.mem_ctrls.port       208799                       # Packet count per connected master and slave (bytes)
system.membus.pkt_count_system.cpu.dcache.mem_side::system.membus.badaddr_responder.pio            2                       # Packet count per connected master and slave (bytes)
system.membus.pkt_count_system.cpu.dcache.mem_side::total       209215                       # Packet count per connected master and slave (bytes)
system.membus.pkt_count::total                 470293                       # Packet count per connected master and slave (bytes)
system.membus.pkt_size_system.iocache.mem_side::system.mem_ctrls.port        11264                       # Cumulative packet size per connected master and slave (bytes)
system.membus.pkt_size_system.iocache.mem_side::total        11264                       # Cumulative packet size per connected master and slave (bytes)
system.membus.pkt_size_system.cpu.icache.mem_side::system.mem_ctrls.port     11109440                       # Cumulative packet size per connected master and slave (bytes)
system.membus.pkt_size_system.cpu.icache.mem_side::total     11109440                       # Cumulative packet size per connected master and slave (bytes)
system.membus.pkt_size_system.cpu.dcache.mem_side::system.bridge.slave          433                       # Cumulative packet size per connected master and slave (bytes)
system.membus.pkt_size_system.cpu.dcache.mem_side::system.mem_ctrls.port      6694720                       # Cumulative packet size per connected master and slave (bytes)
system.membus.pkt_size_system.cpu.dcache.mem_side::total      6695153                       # Cumulative packet size per connected master and slave (bytes)
system.membus.pkt_size::total                17815857                       # Cumulative packet size per connected master and slave (bytes)
system.membus.snoops                               66                       # Total snoops (count)
system.membus.snoopTraffic                       4224                       # Total snoop traffic (bytes)
system.membus.snoop_fanout::samples            157473                       # Request fanout histogram
system.membus.snoop_fanout::mean             0.002788                       # Request fanout histogram
system.membus.snoop_fanout::stdev            0.052726                       # Request fanout histogram
system.membus.snoop_fanout::underflows              0      0.00%      0.00% # Request fanout histogram
system.membus.snoop_fanout::0                  157034     99.72%     99.72% # Request fanout histogram
system.membus.snoop_fanout::1                     439      0.28%    100.00% # Request fanout histogram
system.membus.snoop_fanout::2                       0      0.00%    100.00% # Request fanout histogram
system.membus.snoop_fanout::3                       0      0.00%    100.00% # Request fanout histogram
system.membus.snoop_fanout::overflows               0      0.00%    100.00% # Request fanout histogram
system.membus.snoop_fanout::min_value               0                       # Request fanout histogram
system.membus.snoop_fanout::max_value               1                       # Request fanout histogram
system.membus.snoop_fanout::total              157473                       # Request fanout histogram
system.membus.reqLayer0.occupancy              352500                       # Layer occupancy (ticks)
system.membus.reqLayer0.utilization               0.0                       # Layer utilization (%)
system.membus.reqLayer1.occupancy           820657536                       # Layer occupancy (ticks)
system.membus.reqLayer1.utilization               6.9                       # Layer utilization (%)
system.membus.reqLayer2.occupancy                1500                       # Layer occupancy (ticks)
system.membus.reqLayer2.utilization               0.0                       # Layer utilization (%)
system.membus.respLayer1.occupancy              17997                       # Layer occupancy (ticks)
system.membus.respLayer1.utilization              0.0                       # Layer utilization (%)
system.membus.respLayer3.occupancy          376263000                       # Layer occupancy (ticks)
system.membus.respLayer3.utilization              3.2                       # Layer utilization (%)
system.membus.badaddr_responder.pwrStateResidencyTicks::UNDEFINED 2541826278500                       # Cumulative time (in ticks) in various power states
system.membus.respLayer2.occupancy          461896250                       # Layer occupancy (ticks)
system.membus.respLayer2.utilization              3.9                       # Layer utilization (%)
system.clk_domain.clock                          1000                       # Clock period in ticks
system.tsunami.fake_uart1.pwrStateResidencyTicks::UNDEFINED 2541826278500                       # Cumulative time (in ticks) in various power states
system.tsunami.fake_uart2.pwrStateResidencyTicks::UNDEFINED 2541826278500                       # Cumulative time (in ticks) in various power states
system.tsunami.fake_uart3.pwrStateResidencyTicks::UNDEFINED 2541826278500                       # Cumulative time (in ticks) in various power states
system.tsunami.fake_uart4.pwrStateResidencyTicks::UNDEFINED 2541826278500                       # Cumulative time (in ticks) in various power states
system.tsunami.fake_ppc.pwrStateResidencyTicks::UNDEFINED 2541826278500                       # Cumulative time (in ticks) in various power states
system.tsunami.cchip.pwrStateResidencyTicks::UNDEFINED 2541826278500                       # Cumulative time (in ticks) in various power states
system.tsunami.io.pwrStateResidencyTicks::UNDEFINED 2541826278500                       # Cumulative time (in ticks) in various power states
system.tsunami.pchip.pwrStateResidencyTicks::UNDEFINED 2541826278500                       # Cumulative time (in ticks) in various power states
system.tsunami.fake_ata1.pwrStateResidencyTicks::UNDEFINED 2541826278500                       # Cumulative time (in ticks) in various power states
system.tsunami.fake_ata0.pwrStateResidencyTicks::UNDEFINED 2541826278500                       # Cumulative time (in ticks) in various power states
system.tsunami.backdoor.pwrStateResidencyTicks::UNDEFINED 2541826278500                       # Cumulative time (in ticks) in various power states
system.tsunami.fake_pnp_read3.pwrStateResidencyTicks::UNDEFINED 2541826278500                       # Cumulative time (in ticks) in various power states
system.tsunami.fake_pnp_read2.pwrStateResidencyTicks::UNDEFINED 2541826278500                       # Cumulative time (in ticks) in various power states
system.tsunami.fake_pnp_read1.pwrStateResidencyTicks::UNDEFINED 2541826278500                       # Cumulative time (in ticks) in various power states
system.tsunami.fake_pnp_read0.pwrStateResidencyTicks::UNDEFINED 2541826278500                       # Cumulative time (in ticks) in various power states
system.tsunami.fake_pnp_read7.pwrStateResidencyTicks::UNDEFINED 2541826278500                       # Cumulative time (in ticks) in various power states
system.tsunami.fake_pnp_read6.pwrStateResidencyTicks::UNDEFINED 2541826278500                       # Cumulative time (in ticks) in various power states
system.tsunami.fake_pnp_read5.pwrStateResidencyTicks::UNDEFINED 2541826278500                       # Cumulative time (in ticks) in various power states
system.tsunami.fake_pnp_read4.pwrStateResidencyTicks::UNDEFINED 2541826278500                       # Cumulative time (in ticks) in various power states
system.tsunami.fake_pnp_write.pwrStateResidencyTicks::UNDEFINED 2541826278500                       # Cumulative time (in ticks) in various power states
system.tsunami.fb.pwrStateResidencyTicks::UNDEFINED 2541826278500                       # Cumulative time (in ticks) in various power states
system.tsunami.fake_pnp_addr.pwrStateResidencyTicks::UNDEFINED 2541826278500                       # Cumulative time (in ticks) in various power states
system.tsunami.fake_OROM.pwrStateResidencyTicks::UNDEFINED 2541826278500                       # Cumulative time (in ticks) in various power states
system.tsunami.uart.pwrStateResidencyTicks::UNDEFINED 2541826278500                       # Cumulative time (in ticks) in various power states
system.tsunami.fake_sm_chip.pwrStateResidencyTicks::UNDEFINED 2541826278500                       # Cumulative time (in ticks) in various power states
system.tsunami.ethernet.pwrStateResidencyTicks::UNDEFINED 2541826278500                       # Cumulative time (in ticks) in various power states
system.tsunami.ide.pwrStateResidencyTicks::UNDEFINED 2541826278500                       # Cumulative time (in ticks) in various power states
system.cpu_voltage_domain.voltage                   1                       # Voltage in Volts
system.mem_ctrls.pwrStateResidencyTicks::UNDEFINED 2541826278500                       # Cumulative time (in ticks) in various power states
system.mem_ctrls.bytes_read::.cpu.inst        5571584                       # Number of bytes read from this memory
system.mem_ctrls.bytes_read::.cpu.data        4475904                       # Number of bytes read from this memory
system.mem_ctrls.bytes_read::total           10047488                       # Number of bytes read from this memory
system.mem_ctrls.bytes_inst_read::.cpu.inst      5571584                       # Number of instructions bytes read from this memory
system.mem_ctrls.bytes_inst_read::total       5571584                       # Number of instructions bytes read from this memory
system.mem_ctrls.bytes_written::.writebacks      2230080                       # Number of bytes written to this memory
system.mem_ctrls.bytes_written::total         2230080                       # Number of bytes written to this memory
system.mem_ctrls.num_reads::.cpu.inst           87056                       # Number of read requests responded to by this memory
system.mem_ctrls.num_reads::.cpu.data           69936                       # Number of read requests responded to by this memory
system.mem_ctrls.num_reads::total              156992                       # Number of read requests responded to by this memory
system.mem_ctrls.num_writes::.writebacks        34845                       # Number of write requests responded to by this memory
system.mem_ctrls.num_writes::total              34845                       # Number of write requests responded to by this memory
system.mem_ctrls.bw_read::.cpu.inst         471511476                       # Total read bandwidth from this memory (bytes/s)
system.mem_ctrls.bw_read::.cpu.data         378786374                       # Total read bandwidth from this memory (bytes/s)
system.mem_ctrls.bw_read::total             850297850                       # Total read bandwidth from this memory (bytes/s)
system.mem_ctrls.bw_inst_read::.cpu.inst    471511476                       # Instruction read bandwidth from this memory (bytes/s)
system.mem_ctrls.bw_inst_read::total        471511476                       # Instruction read bandwidth from this memory (bytes/s)
system.mem_ctrls.bw_write::.writebacks      188726996                       # Write bandwidth from this memory (bytes/s)
system.mem_ctrls.bw_write::total            188726996                       # Write bandwidth from this memory (bytes/s)
system.mem_ctrls.bw_total::.writebacks      188726996                       # Total bandwidth to/from this memory (bytes/s)
system.mem_ctrls.bw_total::.cpu.inst        471511476                       # Total bandwidth to/from this memory (bytes/s)
system.mem_ctrls.bw_total::.cpu.data        378786374                       # Total bandwidth to/from this memory (bytes/s)
system.mem_ctrls.bw_total::total           1039024846                       # Total bandwidth to/from this memory (bytes/s)
system.mem_ctrls.avgPriority_.writebacks::samples    118976.00                       # Average QoS priority value for accepted requests
system.mem_ctrls.avgPriority_.cpu.inst::samples     77211.00                       # Average QoS priority value for accepted requests
system.mem_ctrls.avgPriority_.cpu.data::samples     69444.00                       # Average QoS priority value for accepted requests
system.mem_ctrls.priorityMinLatency      0.000000018750                       # per QoS priority minimum request to response latency (s)
system.mem_ctrls.priorityMaxLatency      0.000129168500                       # per QoS priority maximum request to response latency (s)
system.mem_ctrls.numReadWriteTurnArounds         7320                       # Number of turnarounds from READ to WRITE
system.mem_ctrls.numWriteReadTurnArounds         7320                       # Number of turnarounds from WRITE to READ
system.mem_ctrls.numStayReadState              406788                       # Number of times bus staying in READ state
system.mem_ctrls.numStayWriteState             111706                       # Number of times bus staying in WRITE state
system.mem_ctrls.readReqs                      156992                       # Number of read requests accepted
system.mem_ctrls.writeReqs                     121155                       # Number of write requests accepted
system.mem_ctrls.readBursts                    156992                       # Number of DRAM read bursts, including those serviced by the write queue
system.mem_ctrls.writeBursts                   121155                       # Number of DRAM write bursts, including those merged in the write queue
system.mem_ctrls.servicedByWrQ                  10337                       # Number of DRAM read bursts serviced by the write queue
system.mem_ctrls.mergedWrBursts                  2179                       # Number of DRAM write bursts merged with an existing one
system.mem_ctrls.neitherReadNorWriteReqs            0                       # Number of requests that are neither read nor write
system.mem_ctrls.perBankRdBursts::0              8760                       # Per bank write bursts
system.mem_ctrls.perBankRdBursts::1              6626                       # Per bank write bursts
system.mem_ctrls.perBankRdBursts::2              9844                       # Per bank write bursts
system.mem_ctrls.perBankRdBursts::3              7049                       # Per bank write bursts
system.mem_ctrls.perBankRdBursts::4              8516                       # Per bank write bursts
system.mem_ctrls.perBankRdBursts::5             10070                       # Per bank write bursts
system.mem_ctrls.perBankRdBursts::6              8569                       # Per bank write bursts
system.mem_ctrls.perBankRdBursts::7              8681                       # Per bank write bursts
system.mem_ctrls.perBankRdBursts::8             11712                       # Per bank write bursts
system.mem_ctrls.perBankRdBursts::9              9261                       # Per bank write bursts
system.mem_ctrls.perBankRdBursts::10            10444                       # Per bank write bursts
system.mem_ctrls.perBankRdBursts::11            12259                       # Per bank write bursts
system.mem_ctrls.perBankRdBursts::12             8814                       # Per bank write bursts
system.mem_ctrls.perBankRdBursts::13            13497                       # Per bank write bursts
system.mem_ctrls.perBankRdBursts::14             5579                       # Per bank write bursts
system.mem_ctrls.perBankRdBursts::15             6974                       # Per bank write bursts
system.mem_ctrls.perBankWrBursts::0              7043                       # Per bank write bursts
system.mem_ctrls.perBankWrBursts::1              4451                       # Per bank write bursts
system.mem_ctrls.perBankWrBursts::2              8477                       # Per bank write bursts
system.mem_ctrls.perBankWrBursts::3              7872                       # Per bank write bursts
system.mem_ctrls.perBankWrBursts::4              7686                       # Per bank write bursts
system.mem_ctrls.perBankWrBursts::5              9886                       # Per bank write bursts
system.mem_ctrls.perBankWrBursts::6              7341                       # Per bank write bursts
system.mem_ctrls.perBankWrBursts::7              6867                       # Per bank write bursts
system.mem_ctrls.perBankWrBursts::8             10464                       # Per bank write bursts
system.mem_ctrls.perBankWrBursts::9              8421                       # Per bank write bursts
system.mem_ctrls.perBankWrBursts::10             7796                       # Per bank write bursts
system.mem_ctrls.perBankWrBursts::11             8173                       # Per bank write bursts
system.mem_ctrls.perBankWrBursts::12             5439                       # Per bank write bursts
system.mem_ctrls.perBankWrBursts::13             9933                       # Per bank write bursts
system.mem_ctrls.perBankWrBursts::14             3238                       # Per bank write bursts
system.mem_ctrls.perBankWrBursts::15             5861                       # Per bank write bursts
system.mem_ctrls.avgRdQLen                       1.09                       # Average read queue length when enqueuing
system.mem_ctrls.avgWrQLen                      25.75                       # Average write queue length when enqueuing
system.mem_ctrls.totQLat                   2011743500                       # Total ticks spent queuing
system.mem_ctrls.totBusLat                  733275000                       # Total ticks spent in databus transfers
system.mem_ctrls.totMemAccLat              4761524750                       # Total ticks spent from burst creation until serviced by the DRAM
system.mem_ctrls.avgQLat                     13717.52                       # Average queueing delay per DRAM burst
system.mem_ctrls.avgBusLat                    5000.00                       # Average bus latency per DRAM burst
system.mem_ctrls.avgMemAccLat                32467.52                       # Average memory access latency per DRAM burst
system.mem_ctrls.numRdRetry                         0                       # Number of times read queue was full causing retry
system.mem_ctrls.numWrRetry                         0                       # Number of times write queue was full causing retry
system.mem_ctrls.readRowHits                   103942                       # Number of row buffer hits during reads
system.mem_ctrls.writeRowHits                   80283                       # Number of row buffer hits during writes
system.mem_ctrls.readRowHitRate                 70.88                       # Row buffer hit rate for reads
system.mem_ctrls.writeRowHitRate                67.48                       # Row buffer hit rate for writes
system.mem_ctrls.readPktSize::0                     0                       # Read request sizes (log2)
system.mem_ctrls.readPktSize::1                     0                       # Read request sizes (log2)
system.mem_ctrls.readPktSize::2                     0                       # Read request sizes (log2)
system.mem_ctrls.readPktSize::3                     0                       # Read request sizes (log2)
system.mem_ctrls.readPktSize::4                     0                       # Read request sizes (log2)
system.mem_ctrls.readPktSize::5                     0                       # Read request sizes (log2)
system.mem_ctrls.readPktSize::6                156992                       # Read request sizes (log2)
system.mem_ctrls.writePktSize::0                    0                       # Write request sizes (log2)
system.mem_ctrls.writePktSize::1                    0                       # Write request sizes (log2)
system.mem_ctrls.writePktSize::2                    0                       # Write request sizes (log2)
system.mem_ctrls.writePktSize::3                    0                       # Write request sizes (log2)
system.mem_ctrls.writePktSize::4                    0                       # Write request sizes (log2)
system.mem_ctrls.writePktSize::5                    0                       # Write request sizes (log2)
system.mem_ctrls.writePktSize::6               121155                       # Write request sizes (log2)
system.mem_ctrls.rdQLenPdf::0                  134188                       # What read queue length does an incoming req see
system.mem_ctrls.rdQLenPdf::1                   12142                       # What read queue length does an incoming req see
system.mem_ctrls.rdQLenPdf::2                     325                       # What read queue length does an incoming req see
system.mem_ctrls.rdQLenPdf::3                       0                       # What read queue length does an incoming req see
system.mem_ctrls.rdQLenPdf::4                       0                       # What read queue length does an incoming req see
system.mem_ctrls.rdQLenPdf::5                       0                       # What read queue length does an incoming req see
system.mem_ctrls.rdQLenPdf::6                       0                       # What read queue length does an incoming req see
system.mem_ctrls.rdQLenPdf::7                       0                       # What read queue length does an incoming req see
system.mem_ctrls.rdQLenPdf::8                       0                       # What read queue length does an incoming req see
system.mem_ctrls.rdQLenPdf::9                       0                       # What read queue length does an incoming req see
system.mem_ctrls.rdQLenPdf::10                      0                       # What read queue length does an incoming req see
system.mem_ctrls.rdQLenPdf::11                      0                       # What read queue length does an incoming req see
system.mem_ctrls.rdQLenPdf::12                      0                       # What read queue length does an incoming req see
system.mem_ctrls.rdQLenPdf::13                      0                       # What read queue length does an incoming req see
system.mem_ctrls.rdQLenPdf::14                      0                       # What read queue length does an incoming req see
system.mem_ctrls.rdQLenPdf::15                      0                       # What read queue length does an incoming req see
system.mem_ctrls.rdQLenPdf::16                      0                       # What read queue length does an incoming req see
system.mem_ctrls.rdQLenPdf::17                      0                       # What read queue length does an incoming req see
system.mem_ctrls.rdQLenPdf::18                      0                       # What read queue length does an incoming req see
system.mem_ctrls.rdQLenPdf::19                      0                       # What read queue length does an incoming req see
system.mem_ctrls.rdQLenPdf::20                      0                       # What read queue length does an incoming req see
system.mem_ctrls.rdQLenPdf::21                      0                       # What read queue length does an incoming req see
system.mem_ctrls.rdQLenPdf::22                      0                       # What read queue length does an incoming req see
system.mem_ctrls.rdQLenPdf::23                      0                       # What read queue length does an incoming req see
system.mem_ctrls.rdQLenPdf::24                      0                       # What read queue length does an incoming req see
system.mem_ctrls.rdQLenPdf::25                      0                       # What read queue length does an incoming req see
system.mem_ctrls.rdQLenPdf::26                      0                       # What read queue length does an incoming req see
system.mem_ctrls.rdQLenPdf::27                      0                       # What read queue length does an incoming req see
system.mem_ctrls.rdQLenPdf::28                      0                       # What read queue length does an incoming req see
system.mem_ctrls.rdQLenPdf::29                      0                       # What read queue length does an incoming req see
system.mem_ctrls.rdQLenPdf::30                      0                       # What read queue length does an incoming req see
system.mem_ctrls.rdQLenPdf::31                      0                       # What read queue length does an incoming req see
system.mem_ctrls.wrQLenPdf::0                       1                       # What write queue length does an incoming req see
system.mem_ctrls.wrQLenPdf::1                       1                       # What write queue length does an incoming req see
system.mem_ctrls.wrQLenPdf::2                       1                       # What write queue length does an incoming req see
system.mem_ctrls.wrQLenPdf::3                       1                       # What write queue length does an incoming req see
system.mem_ctrls.wrQLenPdf::4                       1                       # What write queue length does an incoming req see
system.mem_ctrls.wrQLenPdf::5                       1                       # What write queue length does an incoming req see
system.mem_ctrls.wrQLenPdf::6                       1                       # What write queue length does an incoming req see
system.mem_ctrls.wrQLenPdf::7                       1                       # What write queue length does an incoming req see
system.mem_ctrls.wrQLenPdf::8                       1                       # What write queue length does an incoming req see
system.mem_ctrls.wrQLenPdf::9                       1                       # What write queue length does an incoming req see
system.mem_ctrls.wrQLenPdf::10                      1                       # What write queue length does an incoming req see
system.mem_ctrls.wrQLenPdf::11                      1                       # What write queue length does an incoming req see
system.mem_ctrls.wrQLenPdf::12                      1                       # What write queue length does an incoming req see
system.mem_ctrls.wrQLenPdf::13                      1                       # What write queue length does an incoming req see
system.mem_ctrls.wrQLenPdf::14                      1                       # What write queue length does an incoming req see
system.mem_ctrls.wrQLenPdf::15                    683                       # What write queue length does an incoming req see
system.mem_ctrls.wrQLenPdf::16                    792                       # What write queue length does an incoming req see
system.mem_ctrls.wrQLenPdf::17                   6701                       # What write queue length does an incoming req see
system.mem_ctrls.wrQLenPdf::18                   7324                       # What write queue length does an incoming req see
system.mem_ctrls.wrQLenPdf::19                   7432                       # What write queue length does an incoming req see
system.mem_ctrls.wrQLenPdf::20                   7418                       # What write queue length does an incoming req see
system.mem_ctrls.wrQLenPdf::21                   7394                       # What write queue length does an incoming req see
system.mem_ctrls.wrQLenPdf::22                   7491                       # What write queue length does an incoming req see
system.mem_ctrls.wrQLenPdf::23                   7403                       # What write queue length does an incoming req see
system.mem_ctrls.wrQLenPdf::24                   7416                       # What write queue length does an incoming req see
system.mem_ctrls.wrQLenPdf::25                   7386                       # What write queue length does an incoming req see
system.mem_ctrls.wrQLenPdf::26                   7405                       # What write queue length does an incoming req see
system.mem_ctrls.wrQLenPdf::27                   7386                       # What write queue length does an incoming req see
system.mem_ctrls.wrQLenPdf::28                   7375                       # What write queue length does an incoming req see
system.mem_ctrls.wrQLenPdf::29                   7352                       # What write queue length does an incoming req see
system.mem_ctrls.wrQLenPdf::30                   7322                       # What write queue length does an incoming req see
system.mem_ctrls.wrQLenPdf::31                   7323                       # What write queue length does an incoming req see
system.mem_ctrls.wrQLenPdf::32                   7322                       # What write queue length does an incoming req see
system.mem_ctrls.wrQLenPdf::33                     21                       # What write queue length does an incoming req see
system.mem_ctrls.wrQLenPdf::34                      7                       # What write queue length does an incoming req see
system.mem_ctrls.wrQLenPdf::35                      8                       # What write queue length does an incoming req see
system.mem_ctrls.wrQLenPdf::36                      0                       # What write queue length does an incoming req see
system.mem_ctrls.wrQLenPdf::37                      0                       # What write queue length does an incoming req see
system.mem_ctrls.wrQLenPdf::38                      0                       # What write queue length does an incoming req see
system.mem_ctrls.wrQLenPdf::39                      0                       # What write queue length does an incoming req see
system.mem_ctrls.wrQLenPdf::40                      0                       # What write queue length does an incoming req see
system.mem_ctrls.wrQLenPdf::41                      0                       # What write queue length does an incoming req see
system.mem_ctrls.wrQLenPdf::42                      0                       # What write queue length does an incoming req see
system.mem_ctrls.wrQLenPdf::43                      0                       # What write queue length does an incoming req see
system.mem_ctrls.wrQLenPdf::44                      0                       # What write queue length does an incoming req see
system.mem_ctrls.wrQLenPdf::45                      0                       # What write queue length does an incoming req see
system.mem_ctrls.wrQLenPdf::46                      0                       # What write queue length does an incoming req see
system.mem_ctrls.wrQLenPdf::47                      0                       # What write queue length does an incoming req see
system.mem_ctrls.wrQLenPdf::48                      0                       # What write queue length does an incoming req see
system.mem_ctrls.wrQLenPdf::49                      0                       # What write queue length does an incoming req see
system.mem_ctrls.wrQLenPdf::50                      0                       # What write queue length does an incoming req see
system.mem_ctrls.wrQLenPdf::51                      0                       # What write queue length does an incoming req see
system.mem_ctrls.wrQLenPdf::52                      0                       # What write queue length does an incoming req see
system.mem_ctrls.wrQLenPdf::53                      0                       # What write queue length does an incoming req see
system.mem_ctrls.wrQLenPdf::54                      0                       # What write queue length does an incoming req see
system.mem_ctrls.wrQLenPdf::55                      0                       # What write queue length does an incoming req see
system.mem_ctrls.wrQLenPdf::56                      0                       # What write queue length does an incoming req see
system.mem_ctrls.wrQLenPdf::57                      0                       # What write queue length does an incoming req see
system.mem_ctrls.wrQLenPdf::58                      0                       # What write queue length does an incoming req see
system.mem_ctrls.wrQLenPdf::59                      0                       # What write queue length does an incoming req see
system.mem_ctrls.wrQLenPdf::60                      0                       # What write queue length does an incoming req see
system.mem_ctrls.wrQLenPdf::61                      0                       # What write queue length does an incoming req see
system.mem_ctrls.wrQLenPdf::62                      0                       # What write queue length does an incoming req see
system.mem_ctrls.wrQLenPdf::63                      0                       # What write queue length does an incoming req see
system.mem_ctrls.bytesPerActivate::samples        81364                       # Bytes accessed per row activation
system.mem_ctrls.bytesPerActivate::mean    208.877833                       # Bytes accessed per row activation
system.mem_ctrls.bytesPerActivate::gmean   140.428250                       # Bytes accessed per row activation
system.mem_ctrls.bytesPerActivate::stdev   225.436631                       # Bytes accessed per row activation
system.mem_ctrls.bytesPerActivate::0-127        34386     42.26%     42.26% # Bytes accessed per row activation
system.mem_ctrls.bytesPerActivate::128-255        24257     29.81%     72.07% # Bytes accessed per row activation
system.mem_ctrls.bytesPerActivate::256-383         9923     12.20%     84.27% # Bytes accessed per row activation
system.mem_ctrls.bytesPerActivate::384-511         4658      5.72%     90.00% # Bytes accessed per row activation
system.mem_ctrls.bytesPerActivate::512-639         2362      2.90%     92.90% # Bytes accessed per row activation
system.mem_ctrls.bytesPerActivate::640-767         1444      1.77%     94.67% # Bytes accessed per row activation
system.mem_ctrls.bytesPerActivate::768-895          937      1.15%     95.82% # Bytes accessed per row activation
system.mem_ctrls.bytesPerActivate::896-1023          570      0.70%     96.53% # Bytes accessed per row activation
system.mem_ctrls.bytesPerActivate::1024-1151         2827      3.47%    100.00% # Bytes accessed per row activation
system.mem_ctrls.bytesPerActivate::total        81364                       # Bytes accessed per row activation
system.mem_ctrls.rdPerTurnAround::samples         7320                       # Reads before turning the bus around for writes
system.mem_ctrls.rdPerTurnAround::mean      20.033333                       # Reads before turning the bus around for writes
system.mem_ctrls.rdPerTurnAround::gmean     18.410752                       # Reads before turning the bus around for writes
system.mem_ctrls.rdPerTurnAround::stdev     12.810717                       # Reads before turning the bus around for writes
system.mem_ctrls.rdPerTurnAround::0-15           1293     17.66%     17.66% # Reads before turning the bus around for writes
system.mem_ctrls.rdPerTurnAround::16-31          5543     75.72%     93.39% # Reads before turning the bus around for writes
system.mem_ctrls.rdPerTurnAround::32-47           294      4.02%     97.40% # Reads before turning the bus around for writes
system.mem_ctrls.rdPerTurnAround::48-63            87      1.19%     98.59% # Reads before turning the bus around for writes
system.mem_ctrls.rdPerTurnAround::64-79            42      0.57%     99.17% # Reads before turning the bus around for writes
system.mem_ctrls.rdPerTurnAround::80-95            25      0.34%     99.51% # Reads before turning the bus around for writes
system.mem_ctrls.rdPerTurnAround::96-111            7      0.10%     99.60% # Reads before turning the bus around for writes
system.mem_ctrls.rdPerTurnAround::112-127            8      0.11%     99.71% # Reads before turning the bus around for writes
system.mem_ctrls.rdPerTurnAround::128-143           13      0.18%     99.89% # Reads before turning the bus around for writes
system.mem_ctrls.rdPerTurnAround::144-159            4      0.05%     99.95% # Reads before turning the bus around for writes
system.mem_ctrls.rdPerTurnAround::176-191            1      0.01%     99.96% # Reads before turning the bus around for writes
system.mem_ctrls.rdPerTurnAround::192-207            1      0.01%     99.97% # Reads before turning the bus around for writes
system.mem_ctrls.rdPerTurnAround::256-271            1      0.01%     99.99% # Reads before turning the bus around for writes
system.mem_ctrls.rdPerTurnAround::400-415            1      0.01%    100.00% # Reads before turning the bus around for writes
system.mem_ctrls.rdPerTurnAround::total          7320                       # Reads before turning the bus around for writes
system.mem_ctrls.wrPerTurnAround::samples         7320                       # Writes before turning the bus around for reads
system.mem_ctrls.wrPerTurnAround::mean      16.249727                       # Writes before turning the bus around for reads
system.mem_ctrls.wrPerTurnAround::gmean     16.233539                       # Writes before turning the bus around for reads
system.mem_ctrls.wrPerTurnAround::stdev      0.759105                       # Writes before turning the bus around for reads
system.mem_ctrls.wrPerTurnAround::16             6516     89.02%     89.02% # Writes before turning the bus around for reads
system.mem_ctrls.wrPerTurnAround::17               89      1.22%     90.23% # Writes before turning the bus around for reads
system.mem_ctrls.wrPerTurnAround::18              484      6.61%     96.84% # Writes before turning the bus around for reads
system.mem_ctrls.wrPerTurnAround::19              162      2.21%     99.06% # Writes before turning the bus around for reads
system.mem_ctrls.wrPerTurnAround::20               62      0.85%     99.90% # Writes before turning the bus around for reads
system.mem_ctrls.wrPerTurnAround::21                6      0.08%     99.99% # Writes before turning the bus around for reads
system.mem_ctrls.wrPerTurnAround::23                1      0.01%    100.00% # Writes before turning the bus around for reads
system.mem_ctrls.wrPerTurnAround::total          7320                       # Writes before turning the bus around for reads
system.mem_ctrls.bytesReadDRAM                9385920                       # Total number of bytes read from DRAM
system.mem_ctrls.bytesReadWrQ                  661568                       # Total number of bytes read from write queue
system.mem_ctrls.bytesWritten                 7612672                       # Total number of bytes written to DRAM
system.mem_ctrls.bytesReadSys                10047488                       # Total read bytes from the system interface side
system.mem_ctrls.bytesWrittenSys              7753920                       # Total written bytes from the system interface side
system.mem_ctrls.avgRdBW                       794.31                       # Average DRAM read bandwidth in MiByte/s
system.mem_ctrls.avgWrBW                       644.24                       # Average achieved write bandwidth in MiByte/s
system.mem_ctrls.avgRdBWSys                    850.30                       # Average system read bandwidth in MiByte/s
system.mem_ctrls.avgWrBWSys                    656.20                       # Average system write bandwidth in MiByte/s
system.mem_ctrls.peakBW                      12800.00                       # Theoretical peak bandwidth in MiByte/s
system.mem_ctrls.busUtil                        11.24                       # Data bus utilization in percentage
system.mem_ctrls.busUtilRead                     6.21                       # Data bus utilization in percentage for reads
system.mem_ctrls.busUtilWrite                    5.03                       # Data bus utilization in percentage for writes
system.mem_ctrls.totGap                   11816428500                       # Total gap between requests
system.mem_ctrls.avgGap                      42482.67                       # Average gap between requests
system.mem_ctrls.masterReadBytes::.cpu.inst      4941504                       # Per-master bytes read from memory
system.mem_ctrls.masterReadBytes::.cpu.data      4444416                       # Per-master bytes read from memory
system.mem_ctrls.masterWriteBytes::.writebacks      7612672                       # Per-master bytes write to memory
system.mem_ctrls.masterReadRate::.cpu.inst 418189126.186001896858                       # Per-master bytes read from memory rate (Bytes/sec)
[...]
system.cpu.icache.tags.occ_percent::total            1                       # Average percentage of cache occupancy
system.cpu.icache.tags.occ_task_id_blocks::1024          512                       # Occupied blocks per task id
system.cpu.icache.tags.age_task_id_blocks_1024::1          198                       # Occupied blocks per task id
system.cpu.icache.tags.age_task_id_blocks_1024::2          197                       # Occupied blocks per task id
system.cpu.icache.tags.age_task_id_blocks_1024::3          115                       # Occupied blocks per task id
system.cpu.icache.tags.age_task_id_blocks_1024::4            2                       # Occupied blocks per task id
system.cpu.icache.tags.occ_task_id_percent::1024            1                       # Percentage of cache occupancy per task id
system.cpu.icache.tags.tag_accesses         278056753                       # Number of tag accesses
system.cpu.icache.tags.data_accesses        278056753                       # Number of data accesses
system.cpu.dcache.pwrStateResidencyTicks::UNDEFINED 305184393000                       # Cumulative time (in ticks) in various power states
system.cpu.dcache.demand_hits::.cpu.data    146213108                       # number of demand (read+write) hits
system.cpu.dcache.demand_hits::total        146213108                       # number of demand (read+write) hits
system.cpu.dcache.overall_hits::.cpu.data    146213108                       # number of overall hits
system.cpu.dcache.overall_hits::total       146213108                       # number of overall hits
system.cpu.dcache.demand_misses::.cpu.data       464232                       # number of demand (read+write) misses
system.cpu.dcache.demand_misses::total         464232                       # number of demand (read+write) misses
system.cpu.dcache.overall_misses::.cpu.data       464232                       # number of overall misses
system.cpu.dcache.overall_misses::total        464232                       # number of overall misses
system.cpu.dcache.demand_miss_latency::.cpu.data  29952616000                       # number of demand (read+write) miss cycles
system.cpu.dcache.demand_miss_latency::total  29952616000                       # number of demand (read+write) miss cycles
system.cpu.dcache.overall_miss_latency::.cpu.data  29952616000                       # number of overall miss cycles
system.cpu.dcache.overall_miss_latency::total  29952616000                       # number of overall miss cycles
system.cpu.dcache.demand_accesses::.cpu.data    146677340                       # number of demand (read+write) accesses
system.cpu.dcache.demand_accesses::total    146677340                       # number of demand (read+write) accesses
system.cpu.dcache.overall_accesses::.cpu.data    146677340                       # number of overall (read+write) accesses
system.cpu.dcache.overall_accesses::total    146677340                       # number of overall (read+write) accesses
system.cpu.dcache.demand_miss_rate::.cpu.data     0.003165                       # miss rate for demand accesses
system.cpu.dcache.demand_miss_rate::total     0.003165                       # miss rate for demand accesses
system.cpu.dcache.overall_miss_rate::.cpu.data     0.003165                       # miss rate for overall accesses
system.cpu.dcache.overall_miss_rate::total     0.003165                       # miss rate for overall accesses
system.cpu.dcache.demand_avg_miss_latency::.cpu.data 64520.791328                       # average overall miss latency
system.cpu.dcache.demand_avg_miss_latency::total 64520.791328                       # average overall miss latency
system.cpu.dcache.overall_avg_miss_latency::.cpu.data 64520.791328                       # average overall miss latency
system.cpu.dcache.overall_avg_miss_latency::total 64520.791328                       # average overall miss latency
system.cpu.dcache.blocked_cycles::no_mshrs            0                       # number of cycles access was blocked
system.cpu.dcache.blocked_cycles::no_targets            0                       # number of cycles access was blocked
system.cpu.dcache.blocked::no_mshrs                 0                       # number of cycles access was blocked
system.cpu.dcache.blocked::no_targets               0                       # number of cycles access was blocked
system.cpu.dcache.avg_blocked_cycles::no_mshrs          nan                       # average number of cycles each access was blocked
system.cpu.dcache.avg_blocked_cycles::no_targets          nan                       # average number of cycles each access was blocked
system.cpu.dcache.writebacks::.writebacks       251354                       # number of writebacks
system.cpu.dcache.writebacks::total            251354                       # number of writebacks
system.cpu.dcache.demand_mshr_hits::.cpu.data        93232                       # number of demand (read+write) MSHR hits
system.cpu.dcache.demand_mshr_hits::total        93232                       # number of demand (read+write) MSHR hits
system.cpu.dcache.overall_mshr_hits::.cpu.data        93232                       # number of overall MSHR hits
system.cpu.dcache.overall_mshr_hits::total        93232                       # number of overall MSHR hits
system.cpu.dcache.demand_mshr_misses::.cpu.data       371000                       # number of demand (read+write) MSHR misses
system.cpu.dcache.demand_mshr_misses::total       371000                       # number of demand (read+write) MSHR misses
system.cpu.dcache.overall_mshr_misses::.cpu.data       371000                       # number of overall MSHR misses
system.cpu.dcache.overall_mshr_misses::total       371000                       # number of overall MSHR misses
system.cpu.dcache.overall_mshr_uncacheable_misses::.cpu.data         1604                       # number of overall MSHR uncacheable misses
system.cpu.dcache.overall_mshr_uncacheable_misses::total         1604                       # number of overall MSHR uncacheable misses
system.cpu.dcache.demand_mshr_miss_latency::.cpu.data  23872657000                       # number of demand (read+write) MSHR miss cycles
system.cpu.dcache.demand_mshr_miss_latency::total  23872657000                       # number of demand (read+write) MSHR miss cycles
system.cpu.dcache.overall_mshr_miss_latency::.cpu.data  23872657000                       # number of overall MSHR miss cycles
system.cpu.dcache.overall_mshr_miss_latency::total  23872657000                       # number of overall MSHR miss cycles
system.cpu.dcache.overall_mshr_uncacheable_latency::.cpu.data     75035500                       # number of overall MSHR uncacheable cycles
system.cpu.dcache.overall_mshr_uncacheable_latency::total     75035500                       # number of overall MSHR uncacheable cycles
system.cpu.dcache.demand_mshr_miss_rate::.cpu.data     0.002529                       # mshr miss rate for demand accesses
system.cpu.dcache.demand_mshr_miss_rate::total     0.002529                       # mshr miss rate for demand accesses
system.cpu.dcache.overall_mshr_miss_rate::.cpu.data     0.002529                       # mshr miss rate for overall accesses
system.cpu.dcache.overall_mshr_miss_rate::total     0.002529                       # mshr miss rate for overall accesses
system.cpu.dcache.demand_avg_mshr_miss_latency::.cpu.data 64346.784367                       # average overall mshr miss latency
system.cpu.dcache.demand_avg_mshr_miss_latency::total 64346.784367                       # average overall mshr miss latency
system.cpu.dcache.overall_avg_mshr_miss_latency::.cpu.data 64346.784367                       # average overall mshr miss latency
system.cpu.dcache.overall_avg_mshr_miss_latency::total 64346.784367                       # average overall mshr miss latency
system.cpu.dcache.overall_avg_mshr_uncacheable_latency::.cpu.data 46780.236908                       # average overall mshr uncacheable latency
system.cpu.dcache.overall_avg_mshr_uncacheable_latency::total 46780.236908                       # average overall mshr uncacheable latency
system.cpu.dcache.replacements                 373565                       # number of replacements
system.cpu.dcache.ReadReq_hits::.cpu.data    101603369                       # number of ReadReq hits
system.cpu.dcache.ReadReq_hits::total       101603369                       # number of ReadReq hits
system.cpu.dcache.ReadReq_misses::.cpu.data       261090                       # number of ReadReq misses
system.cpu.dcache.ReadReq_misses::total        261090                       # number of ReadReq misses
system.cpu.dcache.ReadReq_miss_latency::.cpu.data  17723233000                       # number of ReadReq miss cycles
system.cpu.dcache.ReadReq_miss_latency::total  17723233000                       # number of ReadReq miss cycles
system.cpu.dcache.ReadReq_accesses::.cpu.data    101864459                       # number of ReadReq accesses(hits+misses)
system.cpu.dcache.ReadReq_accesses::total    101864459                       # number of ReadReq accesses(hits+misses)
system.cpu.dcache.ReadReq_miss_rate::.cpu.data     0.002563                       # miss rate for ReadReq accesses
system.cpu.dcache.ReadReq_miss_rate::total     0.002563                       # miss rate for ReadReq accesses
system.cpu.dcache.ReadReq_avg_miss_latency::.cpu.data 67881.699797                       # average ReadReq miss latency
system.cpu.dcache.ReadReq_avg_miss_latency::total 67881.699797                       # average ReadReq miss latency
system.cpu.dcache.ReadReq_mshr_hits::.cpu.data          450                       # number of ReadReq MSHR hits
system.cpu.dcache.ReadReq_mshr_hits::total          450                       # number of ReadReq MSHR hits
system.cpu.dcache.ReadReq_mshr_misses::.cpu.data       260640                       # number of ReadReq MSHR misses
system.cpu.dcache.ReadReq_mshr_misses::total       260640                       # number of ReadReq MSHR misses
system.cpu.dcache.ReadReq_mshr_uncacheable::.cpu.data          481                       # number of ReadReq MSHR uncacheable
system.cpu.dcache.ReadReq_mshr_uncacheable::total          481                       # number of ReadReq MSHR uncacheable
system.cpu.dcache.ReadReq_mshr_miss_latency::.cpu.data  17430605000                       # number of ReadReq MSHR miss cycles
system.cpu.dcache.ReadReq_mshr_miss_latency::total  17430605000                       # number of ReadReq MSHR miss cycles
system.cpu.dcache.ReadReq_mshr_uncacheable_latency::.cpu.data     75035500                       # number of ReadReq MSHR uncacheable cycles
system.cpu.dcache.ReadReq_mshr_uncacheable_latency::total     75035500                       # number of ReadReq MSHR uncacheable cycles
system.cpu.dcache.ReadReq_mshr_miss_rate::.cpu.data     0.002559                       # mshr miss rate for ReadReq accesses
system.cpu.dcache.ReadReq_mshr_miss_rate::total     0.002559                       # mshr miss rate for ReadReq accesses
system.cpu.dcache.ReadReq_avg_mshr_miss_latency::.cpu.data 66876.170196                       # average ReadReq mshr miss latency
system.cpu.dcache.ReadReq_avg_mshr_miss_latency::total 66876.170196                       # average ReadReq mshr miss latency
system.cpu.dcache.ReadReq_avg_mshr_uncacheable_latency::.cpu.data 155998.960499                       # average ReadReq mshr uncacheable latency
system.cpu.dcache.ReadReq_avg_mshr_uncacheable_latency::total 155998.960499                       # average ReadReq mshr uncacheable latency
system.cpu.dcache.WriteReq_hits::.cpu.data     44609739                       # number of WriteReq hits
system.cpu.dcache.WriteReq_hits::total       44609739                       # number of WriteReq hits
system.cpu.dcache.WriteReq_misses::.cpu.data       203142                       # number of WriteReq misses
system.cpu.dcache.WriteReq_misses::total       203142                       # number of WriteReq misses
system.cpu.dcache.WriteReq_miss_latency::.cpu.data  12229383000                       # number of WriteReq miss cycles
system.cpu.dcache.WriteReq_miss_latency::total  12229383000                       # number of WriteReq miss cycles
system.cpu.dcache.WriteReq_accesses::.cpu.data     44812881                       # number of WriteReq accesses(hits+misses)
system.cpu.dcache.WriteReq_accesses::total     44812881                       # number of WriteReq accesses(hits+misses)
system.cpu.dcache.WriteReq_miss_rate::.cpu.data     0.004533                       # miss rate for WriteReq accesses
system.cpu.dcache.WriteReq_miss_rate::total     0.004533                       # miss rate for WriteReq accesses
system.cpu.dcache.WriteReq_avg_miss_latency::.cpu.data 60201.154857                       # average WriteReq miss latency
system.cpu.dcache.WriteReq_avg_miss_latency::total 60201.154857                       # average WriteReq miss latency
system.cpu.dcache.WriteReq_mshr_hits::.cpu.data        92782                       # number of WriteReq MSHR hits
system.cpu.dcache.WriteReq_mshr_hits::total        92782                       # number of WriteReq MSHR hits
system.cpu.dcache.WriteReq_mshr_misses::.cpu.data       110360                       # number of WriteReq MSHR misses
system.cpu.dcache.WriteReq_mshr_misses::total       110360                       # number of WriteReq MSHR misses
system.cpu.dcache.WriteReq_mshr_uncacheable::.cpu.data         1123                       # number of WriteReq MSHR uncacheable
system.cpu.dcache.WriteReq_mshr_uncacheable::total         1123                       # number of WriteReq MSHR uncacheable
system.cpu.dcache.WriteReq_mshr_miss_latency::.cpu.data   6442052000                       # number of WriteReq MSHR miss cycles
system.cpu.dcache.WriteReq_mshr_miss_latency::total   6442052000                       # number of WriteReq MSHR miss cycles
system.cpu.dcache.WriteReq_mshr_miss_rate::.cpu.data     0.002463                       # mshr miss rate for WriteReq accesses
system.cpu.dcache.WriteReq_mshr_miss_rate::total     0.002463                       # mshr miss rate for WriteReq accesses
system.cpu.dcache.WriteReq_avg_mshr_miss_latency::.cpu.data 58373.069953                       # average WriteReq mshr miss latency
system.cpu.dcache.WriteReq_avg_mshr_miss_latency::total 58373.069953                       # average WriteReq mshr miss latency
system.cpu.dcache.LoadLockedReq_hits::.cpu.data     10153124                       # number of LoadLockedReq hits
system.cpu.dcache.LoadLockedReq_hits::total     10153124                       # number of LoadLockedReq hits
system.cpu.dcache.LoadLockedReq_misses::.cpu.data         2582                       # number of LoadLockedReq misses
system.cpu.dcache.LoadLockedReq_misses::total         2582                       # number of LoadLockedReq misses
system.cpu.dcache.LoadLockedReq_miss_latency::.cpu.data    204570000                       # number of LoadLockedReq miss cycles
system.cpu.dcache.LoadLockedReq_miss_latency::total    204570000                       # number of LoadLockedReq miss cycles
system.cpu.dcache.LoadLockedReq_accesses::.cpu.data     10155706                       # number of LoadLockedReq accesses(hits+misses)
system.cpu.dcache.LoadLockedReq_accesses::total     10155706                       # number of LoadLockedReq accesses(hits+misses)
system.cpu.dcache.LoadLockedReq_miss_rate::.cpu.data     0.000254                       # miss rate for LoadLockedReq accesses
system.cpu.dcache.LoadLockedReq_miss_rate::total     0.000254                       # miss rate for LoadLockedReq accesses
system.cpu.dcache.LoadLockedReq_avg_miss_latency::.cpu.data 79229.279628                       # average LoadLockedReq miss latency
system.cpu.dcache.LoadLockedReq_avg_miss_latency::total 79229.279628                       # average LoadLockedReq miss latency
system.cpu.dcache.LoadLockedReq_mshr_hits::.cpu.data            6                       # number of LoadLockedReq MSHR hits
system.cpu.dcache.LoadLockedReq_mshr_hits::total            6                       # number of LoadLockedReq MSHR hits
system.cpu.dcache.LoadLockedReq_mshr_misses::.cpu.data         2576                       # number of LoadLockedReq MSHR misses
system.cpu.dcache.LoadLockedReq_mshr_misses::total         2576                       # number of LoadLockedReq MSHR misses
system.cpu.dcache.LoadLockedReq_mshr_miss_latency::.cpu.data    201637500                       # number of LoadLockedReq MSHR miss cycles
system.cpu.dcache.LoadLockedReq_mshr_miss_latency::total    201637500                       # number of LoadLockedReq MSHR miss cycles
system.cpu.dcache.LoadLockedReq_mshr_miss_rate::.cpu.data     0.000254                       # mshr miss rate for LoadLockedReq accesses
system.cpu.dcache.LoadLockedReq_mshr_miss_rate::total     0.000254                       # mshr miss rate for LoadLockedReq accesses
system.cpu.dcache.LoadLockedReq_avg_mshr_miss_latency::.cpu.data 78275.427019                       # average LoadLockedReq mshr miss latency
system.cpu.dcache.LoadLockedReq_avg_mshr_miss_latency::total 78275.427019                       # average LoadLockedReq mshr miss latency
system.cpu.dcache.StoreCondReq_hits::.cpu.data     10155681                       # number of StoreCondReq hits
system.cpu.dcache.StoreCondReq_hits::total     10155681                       # number of StoreCondReq hits
system.cpu.dcache.StoreCondReq_accesses::.cpu.data     10155681                       # number of StoreCondReq accesses(hits+misses)
system.cpu.dcache.StoreCondReq_accesses::total     10155681                       # number of StoreCondReq accesses(hits+misses)
system.cpu.dcache.tags.pwrStateResidencyTicks::UNDEFINED 305184393000                       # Cumulative time (in ticks) in various power states
system.cpu.dcache.tags.tagsinuse                 1024                       # Cycle average of tags in use
system.cpu.dcache.tags.total_refs           166966545                       # Total number of references to valid blocks.
system.cpu.dcache.tags.sampled_refs            374589                       # Sample count of references to valid blocks.
system.cpu.dcache.tags.avg_refs            445.732643                       # Average number of references to valid blocks.
system.cpu.dcache.tags.warmup_cycle                 0                       # Cycle when the warmup percentage was hit.
system.cpu.dcache.tags.occ_blocks::.cpu.data         1024                       # Average occupied blocks per requestor
system.cpu.dcache.tags.occ_percent::.cpu.data            1                       # Average percentage of cache occupancy
system.cpu.dcache.tags.occ_percent::total            1                       # Average percentage of cache occupancy
system.cpu.dcache.tags.occ_task_id_blocks::1024         1024                       # Occupied blocks per task id
system.cpu.dcache.tags.age_task_id_blocks_1024::0            3                       # Occupied blocks per task id
system.cpu.dcache.tags.age_task_id_blocks_1024::1          263                       # Occupied blocks per task id
system.cpu.dcache.tags.age_task_id_blocks_1024::2          729                       # Occupied blocks per task id
system.cpu.dcache.tags.age_task_id_blocks_1024::3           25                       # Occupied blocks per task id
system.cpu.dcache.tags.age_task_id_blocks_1024::4            4                       # Occupied blocks per task id
system.cpu.dcache.tags.occ_task_id_percent::1024            1                       # Percentage of cache occupancy per task id
system.cpu.dcache.tags.tag_accesses         334351019                       # Number of tag accesses
system.cpu.dcache.tags.data_accesses        334351019                       # Number of data accesses

---------- End Simulation Statistics   ----------
