Running with PerceptronBP
rm: cannot remove 'm5out/cpt.2530009845000': Is a directory
Started: Tue Jan 14 02:02:38 UTC 2020
gem5 Simulator System.  http://gem5.org
gem5 is copyrighted software; use the --copyright option for details.

gem5 compiled Jan 14 2020 01:04:33
gem5 started Jan 14 2020 02:02:38
gem5 executing on final-project-1, pid 4580
command line: ./build/ALPHA/gem5.opt configs/example/fs.py -n 1 --cpu-type=MinorCPU --caches --kernel=vmlinux --script=./benchmarks/scripts/canneal/canneal_1c_simsmall.rcS --bp-type=PerceptronBP -r 1 --restore-with-cpu=MinorCPU

Global frequency set at 1000000000000 ticks per second
warn: DRAM device capacity (8192 Mbytes) does not match the address range assigned (512 Mbytes)
info: kernel located at: /home/alvaro/gem5/benchmarks/m5_system_2.0b3/binaries/vmlinux
system.terminal: Listening for connections on port 3456
      0: system.tsunami.io.rtc: Real-time clock set to Thu Jan  1 00:00:00 2009
warn: Breakpoints do not work in Alpha PAL mode.
      See PCEventQueue::doService() in cpu/pc_event.cc.
0: system.remote_gdb: listening for remote gdb on port 7000
**** REAL SIMULATION ****
info: Entering event queue @ 2530009845000.  Starting simulation...
warn: Prefetch instructions in Alpha do not do anything
warn: Prefetch instructions in Alpha do not do anything
warn: Prefetch instructions in Alpha do not do anything
Exiting @ tick 3157097379000 because user interrupt received
Finished: Tue Jan 14 02:32:38 UTC 2020
Took 1800s to complete
