
---------- Begin Simulation Statistics ----------
final_tick                               2541788990500                       # Number of ticks from beginning of simulation (restored from checkpoints and never reset)
host_inst_rate                                 203849                       # Simulator instruction rate (inst/s)
host_mem_usage                                 746816                       # Number of bytes of host memory used
host_op_rate                                   203848                       # Simulator op (including micro ops) rate (op/s)
host_seconds                                    20.59                       # Real time elapsed on the host
host_tick_rate                              572068907                       # Simulator tick rate (ticks/s)
sim_freq                                 1000000000000                       # Frequency of simulated ticks
sim_insts                                     4197320                       # Number of instructions simulated
sim_ops                                       4197320                       # Number of ops (including micro ops) simulated
sim_seconds                                  0.011779                       # Number of seconds simulated
sim_ticks                                 11779145500                       # Number of ticks simulated
system.cpu.branchPred.BTBCorrect                    0                       # Number of correct BTB predictions (this stat may not work properly.
system.cpu.branchPred.BTBHitPct             47.235207                       # BTB Hit Percentage
system.cpu.branchPred.BTBHits                  363986                       # Number of BTB hits
system.cpu.branchPred.BTBLookups               770582                       # Number of BTB lookups
system.cpu.branchPred.RASInCorrect               2567                       # Number of incorrect RAS predictions.
system.cpu.branchPred.condIncorrect             73418                       # Number of conditional branches incorrect
system.cpu.branchPred.condPredicted            836435                       # Number of conditional branches predicted
system.cpu.branchPred.indirectHits              50220                       # Number of indirect target hits.
system.cpu.branchPred.indirectLookups          239648                       # Number of indirect predictor lookups.
system.cpu.branchPred.indirectMisses           189428                       # Number of indirect misses.
system.cpu.branchPred.lookups                 1008699                       # Number of BP lookups
system.cpu.branchPred.usedRAS                   63386                       # Number of times the RAS was used to get a target.
system.cpu.branchPredindirectMispredicted        26147                       # Number of mispredicted indirect branches.
system.cpu.committedInsts                     4197320                       # Number of instructions committed
system.cpu.committedOps                       4197320                       # Number of ops (including micro ops) committed
system.cpu.cpi                               5.609459                       # CPI: cycles per instruction
system.cpu.discardedOps                        194259                       # Number of ops (including micro ops) which were discarded before commit
system.cpu.dtb.data_accesses                   608598                       # DTB accesses
system.cpu.dtb.data_acv                           131                       # DTB access violations
system.cpu.dtb.data_hits                      1453350                       # DTB hits
system.cpu.dtb.data_misses                       7609                       # DTB misses
system.cpu.dtb.fetch_accesses                       0                       # ITB accesses
system.cpu.dtb.fetch_acv                            0                       # ITB acv
system.cpu.dtb.fetch_hits                           0                       # ITB hits
system.cpu.dtb.fetch_misses                         0                       # ITB misses
system.cpu.dtb.read_accesses                   406738                       # DTB read accesses
system.cpu.dtb.read_acv                            43                       # DTB read access violations
system.cpu.dtb.read_hits                       850470                       # DTB read hits
system.cpu.dtb.read_misses                       6817                       # DTB read misses
system.cpu.dtb.write_accesses                  201860                       # DTB write accesses
system.cpu.dtb.write_acv                           88                       # DTB write access violations
system.cpu.dtb.write_hits                      602880                       # DTB write hits
system.cpu.dtb.write_misses                       792                       # DTB write misses
system.cpu.fetch2.amo_instructions                  0                       # Number of memory atomic instructions successfully decoded
system.cpu.fetch2.fp_instructions               18031                       # Number of floating point instructions successfully decoded
system.cpu.fetch2.int_instructions            3389636                       # Number of integer instructions successfully decoded
system.cpu.fetch2.load_instructions           1031827                       # Number of memory load instructions successfully decoded
system.cpu.fetch2.store_instructions           659641                       # Number of memory store instructions successfully decoded
system.cpu.fetch2.vec_instructions                  0                       # Number of SIMD instructions successfully decoded
system.cpu.idleCycles                        16686384                       # Total number of cycles that the object has spent stopped
system.cpu.ipc                               0.178270                       # IPC: instructions per cycle
system.cpu.itb.data_accesses                        0                       # DTB accesses
system.cpu.itb.data_acv                             0                       # DTB access violations
system.cpu.itb.data_hits                            0                       # DTB hits
system.cpu.itb.data_misses                          0                       # DTB misses
system.cpu.itb.fetch_accesses                  939316                       # ITB accesses
system.cpu.itb.fetch_acv                         1543                       # ITB acv
system.cpu.itb.fetch_hits                      933155                       # ITB hits
system.cpu.itb.fetch_misses                      6161                       # ITB misses
system.cpu.itb.read_accesses                        0                       # DTB read accesses
system.cpu.itb.read_acv                             0                       # DTB read access violations
system.cpu.itb.read_hits                            0                       # DTB read hits
system.cpu.itb.read_misses                          0                       # DTB read misses
system.cpu.itb.write_accesses                       0                       # DTB write accesses
system.cpu.itb.write_acv                            0                       # DTB write access violations
system.cpu.itb.write_hits                           0                       # DTB write hits
system.cpu.itb.write_misses                         0                       # DTB write misses
system.cpu.kern.callpal::swpctx                   574      9.47%      9.47% # number of callpals executed
system.cpu.kern.callpal::tbi                       25      0.41%      9.88% # number of callpals executed
system.cpu.kern.callpal::swpipl                  4197     69.26%     79.14% # number of callpals executed
system.cpu.kern.callpal::rdps                      48      0.79%     79.93% # number of callpals executed
system.cpu.kern.callpal::wrusp                      4      0.07%     80.00% # number of callpals executed
system.cpu.kern.callpal::rdusp                      3      0.05%     80.05% # number of callpals executed
system.cpu.kern.callpal::rti                      896     14.79%     94.83% # number of callpals executed
system.cpu.kern.callpal::callsys                  235      3.88%     98.71% # number of callpals executed
system.cpu.kern.callpal::imb                       78      1.29%    100.00% # number of callpals executed
system.cpu.kern.callpal::total                   6060                       # number of callpals executed
system.cpu.kern.inst.arm                            0                       # number of arm instructions executed
system.cpu.kern.inst.hwrei                      14403                       # number of hwrei instructions executed
system.cpu.kern.inst.quiesce                        9                       # number of quiesce instructions executed
system.cpu.kern.ipl_count::0                     2423     47.42%     47.42% # number of times we switched to this ipl
system.cpu.kern.ipl_count::21                       5      0.10%     47.51% # number of times we switched to this ipl
system.cpu.kern.ipl_count::22                      12      0.23%     47.75% # number of times we switched to this ipl
system.cpu.kern.ipl_count::31                    2670     52.25%    100.00% # number of times we switched to this ipl
system.cpu.kern.ipl_count::total                 5110                       # number of times we switched to this ipl
system.cpu.kern.ipl_good::0                      2410     49.82%     49.82% # number of times we switched to this ipl from a different ipl
system.cpu.kern.ipl_good::21                        5      0.10%     49.93% # number of times we switched to this ipl from a different ipl
system.cpu.kern.ipl_good::22                       12      0.25%     50.18% # number of times we switched to this ipl from a different ipl
system.cpu.kern.ipl_good::31                     2410     49.82%    100.00% # number of times we switched to this ipl from a different ipl
system.cpu.kern.ipl_good::total                  4837                       # number of times we switched to this ipl from a different ipl
system.cpu.kern.ipl_ticks::0              10877739000     92.31%     92.31% # number of cycles we spent at this ipl
system.cpu.kern.ipl_ticks::21                 8796000      0.07%     92.39% # number of cycles we spent at this ipl
system.cpu.kern.ipl_ticks::22                17383500      0.15%     92.54% # number of cycles we spent at this ipl
system.cpu.kern.ipl_ticks::31               879634500      7.46%    100.00% # number of cycles we spent at this ipl
system.cpu.kern.ipl_ticks::total          11783553000                       # number of cycles we spent at this ipl
system.cpu.kern.ipl_used::0                  0.994635                       # fraction of swpipl calls that actually changed the ipl
system.cpu.kern.ipl_used::21                        1                       # fraction of swpipl calls that actually changed the ipl
system.cpu.kern.ipl_used::22                        1                       # fraction of swpipl calls that actually changed the ipl
system.cpu.kern.ipl_used::31                 0.902622                       # fraction of swpipl calls that actually changed the ipl
system.cpu.kern.ipl_used::total              0.946575                       # fraction of swpipl calls that actually changed the ipl
system.cpu.kern.mode_good::kernel                 870                      
system.cpu.kern.mode_good::user                   870                      
system.cpu.kern.mode_good::idle                     0                      
system.cpu.kern.mode_switch::kernel              1470                       # number of protection mode switches
system.cpu.kern.mode_switch::user                 870                       # number of protection mode switches
system.cpu.kern.mode_switch::idle                   0                       # number of protection mode switches
system.cpu.kern.mode_switch_good::kernel     0.591837                       # fraction of useful protection mode switches
system.cpu.kern.mode_switch_good::user              1                       # fraction of useful protection mode switches
system.cpu.kern.mode_switch_good::idle            nan                       # fraction of useful protection mode switches
system.cpu.kern.mode_switch_good::total      0.743590                       # fraction of useful protection mode switches
system.cpu.kern.mode_ticks::kernel         7975102500     67.68%     67.68% # number of ticks spent at the given mode
system.cpu.kern.mode_ticks::user           3808450500     32.32%    100.00% # number of ticks spent at the given mode
system.cpu.kern.mode_ticks::idle                    0      0.00%    100.00% # number of ticks spent at the given mode
system.cpu.kern.swap_context                      574                       # number of times the context was actually changed
system.cpu.numCycles                         23544695                       # number of cpu cycles simulated
system.cpu.numFetchSuspends                         9                       # Number of times Execute suspended instruction fetching
system.cpu.numWorkItemsCompleted                    0                       # number of work items this cpu completed
system.cpu.numWorkItemsStarted                      0                       # number of work items this cpu started
system.cpu.op_class_0::No_OpClass               85454      2.04%      2.04% # Class of committed instruction
system.cpu.op_class_0::IntAlu                 2542174     60.57%     62.60% # Class of committed instruction
system.cpu.op_class_0::IntMult                   3673      0.09%     62.69% # Class of committed instruction
system.cpu.op_class_0::IntDiv                       0      0.00%     62.69% # Class of committed instruction
system.cpu.op_class_0::FloatAdd                  8286      0.20%     62.89% # Class of committed instruction
system.cpu.op_class_0::FloatCmp                     0      0.00%     62.89% # Class of committed instruction
system.cpu.op_class_0::FloatCvt                     0      0.00%     62.89% # Class of committed instruction
system.cpu.op_class_0::FloatMult                    0      0.00%     62.89% # Class of committed instruction
system.cpu.op_class_0::FloatMultAcc                 0      0.00%     62.89% # Class of committed instruction
system.cpu.op_class_0::FloatDiv                  1593      0.04%     62.93% # Class of committed instruction
system.cpu.op_class_0::FloatMisc                    0      0.00%     62.93% # Class of committed instruction
system.cpu.op_class_0::FloatSqrt                    0      0.00%     62.93% # Class of committed instruction
system.cpu.op_class_0::SimdAdd                      0      0.00%     62.93% # Class of committed instruction
system.cpu.op_class_0::SimdAddAcc                   0      0.00%     62.93% # Class of committed instruction
system.cpu.op_class_0::SimdAlu                      0      0.00%     62.93% # Class of committed instruction
system.cpu.op_class_0::SimdCmp                      0      0.00%     62.93% # Class of committed instruction
system.cpu.op_class_0::SimdCvt                      0      0.00%     62.93% # Class of committed instruction
system.cpu.op_class_0::SimdMisc                     0      0.00%     62.93% # Class of committed instruction
system.cpu.op_class_0::SimdMult                     0      0.00%     62.93% # Class of committed instruction
system.cpu.op_class_0::SimdMultAcc                  0      0.00%     62.93% # Class of committed instruction
system.cpu.op_class_0::SimdShift                    0      0.00%     62.93% # Class of committed instruction
system.cpu.op_class_0::SimdShiftAcc                 0      0.00%     62.93% # Class of committed instruction
system.cpu.op_class_0::SimdDiv                      0      0.00%     62.93% # Class of committed instruction
system.cpu.op_class_0::SimdSqrt                     0      0.00%     62.93% # Class of committed instruction
system.cpu.op_class_0::SimdFloatAdd                 0      0.00%     62.93% # Class of committed instruction
system.cpu.op_class_0::SimdFloatAlu                 0      0.00%     62.93% # Class of committed instruction
system.cpu.op_class_0::SimdFloatCmp                 0      0.00%     62.93% # Class of committed instruction
system.cpu.op_class_0::SimdFloatCvt                 0      0.00%     62.93% # Class of committed instruction
system.cpu.op_class_0::SimdFloatDiv                 0      0.00%     62.93% # Class of committed instruction
system.cpu.op_class_0::SimdFloatMisc                0      0.00%     62.93% # Class of committed instruction
system.cpu.op_class_0::SimdFloatMult                0      0.00%     62.93% # Class of committed instruction
system.cpu.op_class_0::SimdFloatMultAcc             0      0.00%     62.93% # Class of committed instruction
system.cpu.op_class_0::SimdFloatSqrt                0      0.00%     62.93% # Class of committed instruction
system.cpu.op_class_0::SimdReduceAdd                0      0.00%     62.93% # Class of committed instruction
system.cpu.op_class_0::SimdReduceAlu                0      0.00%     62.93% # Class of committed instruction
system.cpu.op_class_0::SimdReduceCmp                0      0.00%     62.93% # Class of committed instruction
system.cpu.op_class_0::SimdFloatReduceAdd            0      0.00%     62.93% # Class of committed instruction
system.cpu.op_class_0::SimdFloatReduceCmp            0      0.00%     62.93% # Class of committed instruction
system.cpu.op_class_0::SimdAes                      0      0.00%     62.93% # Class of committed instruction
system.cpu.op_class_0::SimdAesMix                   0      0.00%     62.93% # Class of committed instruction
system.cpu.op_class_0::SimdSha1Hash                 0      0.00%     62.93% # Class of committed instruction
system.cpu.op_class_0::SimdSha1Hash2                0      0.00%     62.93% # Class of committed instruction
system.cpu.op_class_0::SimdSha256Hash               0      0.00%     62.93% # Class of committed instruction
system.cpu.op_class_0::SimdSha256Hash2              0      0.00%     62.93% # Class of committed instruction
system.cpu.op_class_0::SimdShaSigma2                0      0.00%     62.93% # Class of committed instruction
system.cpu.op_class_0::SimdShaSigma3                0      0.00%     62.93% # Class of committed instruction
system.cpu.op_class_0::SimdPredAlu                  0      0.00%     62.93% # Class of committed instruction
system.cpu.op_class_0::MemRead                 839705     20.01%     82.93% # Class of committed instruction
system.cpu.op_class_0::MemWrite                592896     14.13%     97.06% # Class of committed instruction
system.cpu.op_class_0::FloatMemRead              9988      0.24%     97.29% # Class of committed instruction
system.cpu.op_class_0::FloatMemWrite             8788      0.21%     97.50% # Class of committed instruction
system.cpu.op_class_0::IprAccess               104763      2.50%    100.00% # Class of committed instruction
system.cpu.op_class_0::InstPrefetch                 0      0.00%    100.00% # Class of committed instruction
system.cpu.op_class_0::total                  4197320                       # Class of committed instruction
system.cpu.quiesceCycles                        13596                       # Total number of cycles that CPU has spent quiesced or waiting for an interrupt
system.cpu.tickCycles                         6858311                       # Number of cycles that the object actually ticked
system.disk0.dma_read_bytes                         0                       # Number of bytes transfered via DMA reads (not PRD).
system.disk0.dma_read_full_pages                    0                       # Number of full page size DMA reads (not PRD).
system.disk0.dma_read_txs                           0                       # Number of DMA read transactions (not PRD).
system.disk0.dma_write_bytes                    12288                       # Number of bytes transfered via DMA writes.
system.disk0.dma_write_full_pages                   0                       # Number of full page size DMA writes.
system.disk0.dma_write_txs                          3                       # Number of DMA write transactions.
system.disk2.dma_read_bytes                         0                       # Number of bytes transfered via DMA reads (not PRD).
system.disk2.dma_read_full_pages                    0                       # Number of full page size DMA reads (not PRD).
system.disk2.dma_read_txs                           0                       # Number of DMA read transactions (not PRD).
system.disk2.dma_write_bytes                        0                       # Number of bytes transfered via DMA writes.
system.disk2.dma_write_full_pages                   0                       # Number of full page size DMA writes.
system.disk2.dma_write_txs                          0                       # Number of DMA write transactions.
system.membus.snoop_filter.hit_multi_requests          432                       # Number of requests hitting in the snoop filter with multiple (>1) holders of the requested data.
system.membus.snoop_filter.hit_multi_snoops            0                       # Number of snoops hitting in the snoop filter with multiple (>1) holders of the requested data.
system.membus.snoop_filter.hit_single_requests       155176                       # Number of requests hitting in the snoop filter with a single holder of the requested data.
system.membus.snoop_filter.hit_single_snoops            0                       # Number of snoops hitting in the snoop filter with a single holder of the requested data.
system.membus.snoop_filter.tot_requests        311955                       # Total number of requests made to the snoop filter.
system.membus.snoop_filter.tot_snoops               0                       # Total number of snoops made to the snoop filter.
system.tsunami.ethernet.coalescedRxDesc           nan                       # average number of RxDesc's coalesced into each post
system.tsunami.ethernet.coalescedRxIdle           nan                       # average number of RxIdle's coalesced into each post
system.tsunami.ethernet.coalescedRxOk             nan                       # average number of RxOk's coalesced into each post
system.tsunami.ethernet.coalescedRxOrn            nan                       # average number of RxOrn's coalesced into each post
system.tsunami.ethernet.coalescedSwi              nan                       # average number of Swi's coalesced into each post
system.tsunami.ethernet.coalescedTotal            nan                       # average number of interrupts coalesced into each post
system.tsunami.ethernet.coalescedTxDesc           nan                       # average number of TxDesc's coalesced into each post
system.tsunami.ethernet.coalescedTxIdle           nan                       # average number of TxIdle's coalesced into each post
system.tsunami.ethernet.coalescedTxOk             nan                       # average number of TxOk's coalesced into each post
system.tsunami.ethernet.descDMAReads                0                       # Number of descriptors the device read w/ DMA
system.tsunami.ethernet.descDMAWrites               0                       # Number of descriptors the device wrote w/ DMA
system.tsunami.ethernet.descDmaReadBytes            0                       # number of descriptor bytes read w/ DMA
system.tsunami.ethernet.descDmaWriteBytes            0                       # number of descriptor bytes write w/ DMA
system.tsunami.ethernet.droppedPackets              0                       # number of packets dropped
system.tsunami.ethernet.postedInterrupts            0                       # number of posts to CPU
system.tsunami.ethernet.postedRxDesc                0                       # number of RxDesc interrupts posted to CPU
system.tsunami.ethernet.postedRxIdle                0                       # number of rxIdle interrupts posted to CPU
system.tsunami.ethernet.postedRxOk                  0                       # number of RxOk interrupts posted to CPU
system.tsunami.ethernet.postedRxOrn                 0                       # number of RxOrn posted to CPU
system.tsunami.ethernet.postedSwi                   0                       # number of software interrupts posted to CPU
system.tsunami.ethernet.postedTxDesc                0                       # number of TxDesc interrupts posted to CPU
system.tsunami.ethernet.postedTxIdle                0                       # number of TxIdle interrupts posted to CPU
system.tsunami.ethernet.postedTxOk                  0                       # number of TxOk interrupts posted to CPU
system.tsunami.ethernet.totalRxDesc                 0                       # total number of RxDesc written to ISR
system.tsunami.ethernet.totalRxIdle                 0                       # total number of RxIdle written to ISR
system.tsunami.ethernet.totalRxOk                   0                       # total number of RxOk written to ISR
system.tsunami.ethernet.totalRxOrn                  0                       # total number of RxOrn written to ISR
system.tsunami.ethernet.totalSwi                    0                       # total number of Swi written to ISR
system.tsunami.ethernet.totalTxDesc                 0                       # total number of TxDesc written to ISR
system.tsunami.ethernet.totalTxIdle                 0                       # total number of TxIdle written to ISR
system.tsunami.ethernet.totalTxOk                   0                       # total number of TxOk written to ISR
system.bridge.pwrStateResidencyTicks::UNDEFINED 2541788990500                       # Cumulative time (in ticks) in various power states
system.voltage_domain.voltage                       1                       # Voltage in Volts
system.iocache.pwrStateResidencyTicks::UNDEFINED 2541788990500                       # Cumulative time (in ticks) in various power states
system.iocache.demand_misses::.tsunami.ide          195                       # number of demand (read+write) misses
system.iocache.demand_misses::total               195                       # number of demand (read+write) misses
system.iocache.overall_misses::.tsunami.ide          195                       # number of overall misses
system.iocache.overall_misses::total              195                       # number of overall misses
system.iocache.demand_miss_latency::.tsunami.ide     22870458                       # number of demand (read+write) miss cycles
system.iocache.demand_miss_latency::total     22870458                       # number of demand (read+write) miss cycles
system.iocache.overall_miss_latency::.tsunami.ide     22870458                       # number of overall miss cycles
system.iocache.overall_miss_latency::total     22870458                       # number of overall miss cycles
system.iocache.demand_accesses::.tsunami.ide          195                       # number of demand (read+write) accesses
system.iocache.demand_accesses::total             195                       # number of demand (read+write) accesses
system.iocache.overall_accesses::.tsunami.ide          195                       # number of overall (read+write) accesses
system.iocache.overall_accesses::total            195                       # number of overall (read+write) accesses
system.iocache.demand_miss_rate::.tsunami.ide            1                       # miss rate for demand accesses
system.iocache.demand_miss_rate::total              1                       # miss rate for demand accesses
system.iocache.overall_miss_rate::.tsunami.ide            1                       # miss rate for overall accesses
system.iocache.overall_miss_rate::total             1                       # miss rate for overall accesses
system.iocache.demand_avg_miss_latency::.tsunami.ide 117284.400000                       # average overall miss latency
system.iocache.demand_avg_miss_latency::total 117284.400000                       # average overall miss latency
system.iocache.overall_avg_miss_latency::.tsunami.ide 117284.400000                       # average overall miss latency
system.iocache.overall_avg_miss_latency::total 117284.400000                       # average overall miss latency
system.iocache.blocked_cycles::no_mshrs             0                       # number of cycles access was blocked
system.iocache.blocked_cycles::no_targets            0                       # number of cycles access was blocked
system.iocache.blocked::no_mshrs                    0                       # number of cycles access was blocked
system.iocache.blocked::no_targets                  0                       # number of cycles access was blocked
system.iocache.avg_blocked_cycles::no_mshrs          nan                       # average number of cycles each access was blocked
system.iocache.avg_blocked_cycles::no_targets          nan                       # average number of cycles each access was blocked
system.iocache.writebacks::.writebacks            176                       # number of writebacks
system.iocache.writebacks::total                  176                       # number of writebacks
system.iocache.demand_mshr_misses::.tsunami.ide          195                       # number of demand (read+write) MSHR misses
system.iocache.demand_mshr_misses::total          195                       # number of demand (read+write) MSHR misses
system.iocache.overall_mshr_misses::.tsunami.ide          195                       # number of overall MSHR misses
system.iocache.overall_mshr_misses::total          195                       # number of overall MSHR misses
system.iocache.demand_mshr_miss_latency::.tsunami.ide     13108491                       # number of demand (read+write) MSHR miss cycles
system.iocache.demand_mshr_miss_latency::total     13108491                       # number of demand (read+write) MSHR miss cycles
system.iocache.overall_mshr_miss_latency::.tsunami.ide     13108491                       # number of overall MSHR miss cycles
system.iocache.overall_mshr_miss_latency::total     13108491                       # number of overall MSHR miss cycles
system.iocache.demand_mshr_miss_rate::.tsunami.ide            1                       # mshr miss rate for demand accesses
system.iocache.demand_mshr_miss_rate::total            1                       # mshr miss rate for demand accesses
system.iocache.overall_mshr_miss_rate::.tsunami.ide            1                       # mshr miss rate for overall accesses
system.iocache.overall_mshr_miss_rate::total            1                       # mshr miss rate for overall accesses
system.iocache.demand_avg_mshr_miss_latency::.tsunami.ide 67223.030769                       # average overall mshr miss latency
system.iocache.demand_avg_mshr_miss_latency::total 67223.030769                       # average overall mshr miss latency
system.iocache.overall_avg_mshr_miss_latency::.tsunami.ide 67223.030769                       # average overall mshr miss latency
system.iocache.overall_avg_mshr_miss_latency::total 67223.030769                       # average overall mshr miss latency
system.iocache.replacements                       179                       # number of replacements
system.iocache.ReadReq_misses::.tsunami.ide            3                       # number of ReadReq misses
system.iocache.ReadReq_misses::total                3                       # number of ReadReq misses
system.iocache.ReadReq_miss_latency::.tsunami.ide       349497                       # number of ReadReq miss cycles
system.iocache.ReadReq_miss_latency::total       349497                       # number of ReadReq miss cycles
system.iocache.ReadReq_accesses::.tsunami.ide            3                       # number of ReadReq accesses(hits+misses)
system.iocache.ReadReq_accesses::total              3                       # number of ReadReq accesses(hits+misses)
system.iocache.ReadReq_miss_rate::.tsunami.ide            1                       # miss rate for ReadReq accesses
system.iocache.ReadReq_miss_rate::total             1                       # miss rate for ReadReq accesses
system.iocache.ReadReq_avg_miss_latency::.tsunami.ide       116499                       # average ReadReq miss latency
system.iocache.ReadReq_avg_miss_latency::total       116499                       # average ReadReq miss latency
system.iocache.ReadReq_mshr_misses::.tsunami.ide            3                       # number of ReadReq MSHR misses
system.iocache.ReadReq_mshr_misses::total            3                       # number of ReadReq MSHR misses
system.iocache.ReadReq_mshr_miss_latency::.tsunami.ide       199497                       # number of ReadReq MSHR miss cycles
system.iocache.ReadReq_mshr_miss_latency::total       199497                       # number of ReadReq MSHR miss cycles
system.iocache.ReadReq_mshr_miss_rate::.tsunami.ide            1                       # mshr miss rate for ReadReq accesses
system.iocache.ReadReq_mshr_miss_rate::total            1                       # mshr miss rate for ReadReq accesses
system.iocache.ReadReq_avg_mshr_miss_latency::.tsunami.ide        66499                       # average ReadReq mshr miss latency
system.iocache.ReadReq_avg_mshr_miss_latency::total        66499                       # average ReadReq mshr miss latency
system.iocache.WriteLineReq_misses::.tsunami.ide          192                       # number of WriteLineReq misses
system.iocache.WriteLineReq_misses::total          192                       # number of WriteLineReq misses
system.iocache.WriteLineReq_miss_latency::.tsunami.ide     22520961                       # number of WriteLineReq miss cycles
system.iocache.WriteLineReq_miss_latency::total     22520961                       # number of WriteLineReq miss cycles
system.iocache.WriteLineReq_accesses::.tsunami.ide          192                       # number of WriteLineReq accesses(hits+misses)
system.iocache.WriteLineReq_accesses::total          192                       # number of WriteLineReq accesses(hits+misses)
system.iocache.WriteLineReq_miss_rate::.tsunami.ide            1                       # miss rate for WriteLineReq accesses
system.iocache.WriteLineReq_miss_rate::total            1                       # miss rate for WriteLineReq accesses
system.iocache.WriteLineReq_avg_miss_latency::.tsunami.ide 117296.671875                       # average WriteLineReq miss latency
system.iocache.WriteLineReq_avg_miss_latency::total 117296.671875                       # average WriteLineReq miss latency
system.iocache.WriteLineReq_mshr_misses::.tsunami.ide          192                       # number of WriteLineReq MSHR misses
system.iocache.WriteLineReq_mshr_misses::total          192                       # number of WriteLineReq MSHR misses
system.iocache.WriteLineReq_mshr_miss_latency::.tsunami.ide     12908994                       # number of WriteLineReq MSHR miss cycles
system.iocache.WriteLineReq_mshr_miss_latency::total     12908994                       # number of WriteLineReq MSHR miss cycles
system.iocache.WriteLineReq_mshr_miss_rate::.tsunami.ide            1                       # mshr miss rate for WriteLineReq accesses
system.iocache.WriteLineReq_mshr_miss_rate::total            1                       # mshr miss rate for WriteLineReq accesses
system.iocache.WriteLineReq_avg_mshr_miss_latency::.tsunami.ide 67234.343750                       # average WriteLineReq mshr miss latency
system.iocache.WriteLineReq_avg_mshr_miss_latency::total 67234.343750                       # average WriteLineReq mshr miss latency
system.iocache.tags.pwrStateResidencyTicks::UNDEFINED 2541788990500                       # Cumulative time (in ticks) in various power states
system.iocache.tags.tagsinuse                3.291230                       # Cycle average of tags in use
system.iocache.tags.total_refs                    179                       # Total number of references to valid blocks.
system.iocache.tags.sampled_refs                  179                       # Sample count of references to valid blocks.
system.iocache.tags.avg_refs                        1                       # Average number of references to valid blocks.
system.iocache.tags.warmup_cycle         2539364920000                       # Cycle when the warmup percentage was hit.
system.iocache.tags.occ_blocks::.tsunami.ide     3.291230                       # Average occupied blocks per requestor
system.iocache.tags.occ_percent::.tsunami.ide     0.205702                       # Average percentage of cache occupancy
system.iocache.tags.occ_percent::total       0.205702                       # Average percentage of cache occupancy
system.iocache.tags.occ_task_id_blocks::1023           16                       # Occupied blocks per task id
system.iocache.tags.age_task_id_blocks_1023::3           16                       # Occupied blocks per task id
system.iocache.tags.occ_task_id_percent::1023            1                       # Percentage of cache occupancy per task id
system.iocache.tags.tag_accesses                 1755                       # Number of tag accesses
system.iocache.tags.data_accesses                1755                       # Number of data accesses
system.membus.pwrStateResidencyTicks::UNDEFINED 2541788990500                       # Cumulative time (in ticks) in various power states
system.membus.trans_dist::ReadReq                 108                       # Transaction distribution
system.membus.trans_dist::ReadResp             127712                       # Transaction distribution
system.membus.trans_dist::WriteReq                 99                       # Transaction distribution
system.membus.trans_dist::WriteResp                99                       # Transaction distribution
system.membus.trans_dist::WritebackDirty        34844                       # Transaction distribution
system.membus.trans_dist::WritebackClean        86164                       # Transaction distribution
system.membus.trans_dist::CleanEvict            34146                       # Transaction distribution
system.membus.trans_dist::UpgradeReq               15                       # Transaction distribution
system.membus.trans_dist::ReadExReq             28988                       # Transaction distribution
system.membus.trans_dist::ReadExResp            28988                       # Transaction distribution
system.membus.trans_dist::ReadCleanReq          86754                       # Transaction distribution
system.membus.trans_dist::ReadSharedReq         40852                       # Transaction distribution
system.membus.trans_dist::BadAddressError            2                       # Transaction distribution
system.membus.trans_dist::InvalidateReq           192                       # Transaction distribution
system.membus.pkt_count_system.iocache.mem_side::system.mem_ctrls.port          374                       # Packet count per connected master and slave (bytes)
system.membus.pkt_count_system.iocache.mem_side::total          374                       # Packet count per connected master and slave (bytes)
system.membus.pkt_count_system.cpu.icache.mem_side::system.mem_ctrls.port       259609                       # Packet count per connected master and slave (bytes)
system.membus.pkt_count_system.cpu.icache.mem_side::total       259609                       # Packet count per connected master and slave (bytes)
system.membus.pkt_count_system.cpu.dcache.mem_side::system.bridge.slave          414                       # Packet count per connected master and slave (bytes)
system.membus.pkt_count_system.cpu.dcache.mem_side::system.mem_ctrls.port       208496                       # Packet count per connected master and slave (bytes)
system.membus.pkt_count_system.cpu.dcache.mem_side::system.membus.badaddr_responder.pio            4                       # Packet count per connected master and slave (bytes)
system.membus.pkt_count_system.cpu.dcache.mem_side::total       208914                       # Packet count per connected master and slave (bytes)
system.membus.pkt_count::total                 468897                       # Packet count per connected master and slave (bytes)
system.membus.pkt_size_system.iocache.mem_side::system.mem_ctrls.port        11264                       # Cumulative packet size per connected master and slave (bytes)
system.membus.pkt_size_system.iocache.mem_side::total        11264                       # Cumulative packet size per connected master and slave (bytes)
system.membus.pkt_size_system.cpu.icache.mem_side::system.mem_ctrls.port     11062720                       # Cumulative packet size per connected master and slave (bytes)
system.membus.pkt_size_system.cpu.icache.mem_side::total     11062720                       # Cumulative packet size per connected master and slave (bytes)
system.membus.pkt_size_system.cpu.dcache.mem_side::system.bridge.slave          433                       # Cumulative packet size per connected master and slave (bytes)
system.membus.pkt_size_system.cpu.dcache.mem_side::system.mem_ctrls.port      6688192                       # Cumulative packet size per connected master and slave (bytes)
system.membus.pkt_size_system.cpu.dcache.mem_side::total      6688625                       # Cumulative packet size per connected master and slave (bytes)
system.membus.pkt_size::total                17762609                       # Cumulative packet size per connected master and slave (bytes)
system.membus.snoops                               66                       # Total snoops (count)
system.membus.snoopTraffic                       4224                       # Total snoop traffic (bytes)
system.membus.snoop_fanout::samples            157008                       # Request fanout histogram
system.membus.snoop_fanout::mean             0.002758                       # Request fanout histogram
system.membus.snoop_fanout::stdev            0.052443                       # Request fanout histogram
system.membus.snoop_fanout::underflows              0      0.00%      0.00% # Request fanout histogram
system.membus.snoop_fanout::0                  156575     99.72%     99.72% # Request fanout histogram
system.membus.snoop_fanout::1                     433      0.28%    100.00% # Request fanout histogram
system.membus.snoop_fanout::2                       0      0.00%    100.00% # Request fanout histogram
system.membus.snoop_fanout::3                       0      0.00%    100.00% # Request fanout histogram
system.membus.snoop_fanout::overflows               0      0.00%    100.00% # Request fanout histogram
system.membus.snoop_fanout::min_value               0                       # Request fanout histogram
system.membus.snoop_fanout::max_value               1                       # Request fanout histogram
system.membus.snoop_fanout::total              157008                       # Request fanout histogram
system.membus.reqLayer0.occupancy              349500                       # Layer occupancy (ticks)
system.membus.reqLayer0.utilization               0.0                       # Layer utilization (%)
system.membus.reqLayer1.occupancy           818514036                       # Layer occupancy (ticks)
system.membus.reqLayer1.utilization               6.9                       # Layer utilization (%)
system.membus.reqLayer2.occupancy                3000                       # Layer occupancy (ticks)
system.membus.reqLayer2.utilization               0.0                       # Layer utilization (%)
system.membus.respLayer1.occupancy              17997                       # Layer occupancy (ticks)
system.membus.respLayer1.utilization              0.0                       # Layer utilization (%)
system.membus.respLayer3.occupancy          375688500                       # Layer occupancy (ticks)
system.membus.respLayer3.utilization              3.2                       # Layer utilization (%)
system.membus.badaddr_responder.pwrStateResidencyTicks::UNDEFINED 2541788990500                       # Cumulative time (in ticks) in various power states
system.membus.respLayer2.occupancy          459942250                       # Layer occupancy (ticks)
system.membus.respLayer2.utilization              3.9                       # Layer utilization (%)
system.clk_domain.clock                          1000                       # Clock period in ticks
system.tsunami.fake_uart1.pwrStateResidencyTicks::UNDEFINED 2541788990500                       # Cumulative time (in ticks) in various power states
system.tsunami.fake_uart2.pwrStateResidencyTicks::UNDEFINED 2541788990500                       # Cumulative time (in ticks) in various power states
system.tsunami.fake_uart3.pwrStateResidencyTicks::UNDEFINED 2541788990500                       # Cumulative time (in ticks) in various power states
system.tsunami.fake_uart4.pwrStateResidencyTicks::UNDEFINED 2541788990500                       # Cumulative time (in ticks) in various power states
system.tsunami.fake_ppc.pwrStateResidencyTicks::UNDEFINED 2541788990500                       # Cumulative time (in ticks) in various power states
system.tsunami.cchip.pwrStateResidencyTicks::UNDEFINED 2541788990500                       # Cumulative time (in ticks) in various power states
system.tsunami.io.pwrStateResidencyTicks::UNDEFINED 2541788990500                       # Cumulative time (in ticks) in various power states
system.tsunami.pchip.pwrStateResidencyTicks::UNDEFINED 2541788990500                       # Cumulative time (in ticks) in various power states
system.tsunami.fake_ata1.pwrStateResidencyTicks::UNDEFINED 2541788990500                       # Cumulative time (in ticks) in various power states
system.tsunami.fake_ata0.pwrStateResidencyTicks::UNDEFINED 2541788990500                       # Cumulative time (in ticks) in various power states
system.tsunami.backdoor.pwrStateResidencyTicks::UNDEFINED 2541788990500                       # Cumulative time (in ticks) in various power states
system.tsunami.fake_pnp_read3.pwrStateResidencyTicks::UNDEFINED 2541788990500                       # Cumulative time (in ticks) in various power states
system.tsunami.fake_pnp_read2.pwrStateResidencyTicks::UNDEFINED 2541788990500                       # Cumulative time (in ticks) in various power states
system.tsunami.fake_pnp_read1.pwrStateResidencyTicks::UNDEFINED 2541788990500                       # Cumulative time (in ticks) in various power states
system.tsunami.fake_pnp_read0.pwrStateResidencyTicks::UNDEFINED 2541788990500                       # Cumulative time (in ticks) in various power states
system.tsunami.fake_pnp_read7.pwrStateResidencyTicks::UNDEFINED 2541788990500                       # Cumulative time (in ticks) in various power states
system.tsunami.fake_pnp_read6.pwrStateResidencyTicks::UNDEFINED 2541788990500                       # Cumulative time (in ticks) in various power states
system.tsunami.fake_pnp_read5.pwrStateResidencyTicks::UNDEFINED 2541788990500                       # Cumulative time (in ticks) in various power states
system.tsunami.fake_pnp_read4.pwrStateResidencyTicks::UNDEFINED 2541788990500                       # Cumulative time (in ticks) in various power states
system.tsunami.fake_pnp_write.pwrStateResidencyTicks::UNDEFINED 2541788990500                       # Cumulative time (in ticks) in various power states
system.tsunami.fb.pwrStateResidencyTicks::UNDEFINED 2541788990500                       # Cumulative time (in ticks) in various power states
system.tsunami.fake_pnp_addr.pwrStateResidencyTicks::UNDEFINED 2541788990500                       # Cumulative time (in ticks) in various power states
system.tsunami.fake_OROM.pwrStateResidencyTicks::UNDEFINED 2541788990500                       # Cumulative time (in ticks) in various power states
system.tsunami.uart.pwrStateResidencyTicks::UNDEFINED 2541788990500                       # Cumulative time (in ticks) in various power states
system.tsunami.fake_sm_chip.pwrStateResidencyTicks::UNDEFINED 2541788990500                       # Cumulative time (in ticks) in various power states
system.tsunami.ethernet.pwrStateResidencyTicks::UNDEFINED 2541788990500                       # Cumulative time (in ticks) in various power states
system.tsunami.ide.pwrStateResidencyTicks::UNDEFINED 2541788990500                       # Cumulative time (in ticks) in various power states
system.cpu_voltage_domain.voltage                   1                       # Voltage in Volts
system.mem_ctrls.pwrStateResidencyTicks::UNDEFINED 2541788990500                       # Cumulative time (in ticks) in various power states
system.mem_ctrls.bytes_read::.cpu.inst        5548224                       # Number of bytes read from this memory
system.mem_ctrls.bytes_read::.cpu.data        4469440                       # Number of bytes read from this memory
system.mem_ctrls.bytes_read::total           10017664                       # Number of bytes read from this memory
system.mem_ctrls.bytes_inst_read::.cpu.inst      5548224                       # Number of instructions bytes read from this memory
system.mem_ctrls.bytes_inst_read::total       5548224                       # Number of instructions bytes read from this memory
system.mem_ctrls.bytes_written::.writebacks      2230016                       # Number of bytes written to this memory
system.mem_ctrls.bytes_written::total         2230016                       # Number of bytes written to this memory
system.mem_ctrls.num_reads::.cpu.inst           86691                       # Number of read requests responded to by this memory
system.mem_ctrls.num_reads::.cpu.data           69835                       # Number of read requests responded to by this memory
system.mem_ctrls.num_reads::total              156526                       # Number of read requests responded to by this memory
system.mem_ctrls.num_writes::.writebacks        34844                       # Number of write requests responded to by this memory
system.mem_ctrls.num_writes::total              34844                       # Number of write requests responded to by this memory
system.mem_ctrls.bw_read::.cpu.inst         471020924                       # Total read bandwidth from this memory (bytes/s)
system.mem_ctrls.bw_read::.cpu.data         379436692                       # Total read bandwidth from this memory (bytes/s)
system.mem_ctrls.bw_read::total             850457616                       # Total read bandwidth from this memory (bytes/s)
system.mem_ctrls.bw_inst_read::.cpu.inst    471020924                       # Instruction read bandwidth from this memory (bytes/s)
system.mem_ctrls.bw_inst_read::total        471020924                       # Instruction read bandwidth from this memory (bytes/s)
system.mem_ctrls.bw_write::.writebacks      189318996                       # Write bandwidth from this memory (bytes/s)
system.mem_ctrls.bw_write::total            189318996                       # Write bandwidth from this memory (bytes/s)
system.mem_ctrls.bw_total::.writebacks      189318996                       # Total bandwidth to/from this memory (bytes/s)
system.mem_ctrls.bw_total::.cpu.inst        471020924                       # Total bandwidth to/from this memory (bytes/s)
system.mem_ctrls.bw_total::.cpu.data        379436692                       # Total bandwidth to/from this memory (bytes/s)
system.mem_ctrls.bw_total::total           1039776612                       # Total bandwidth to/from this memory (bytes/s)
system.mem_ctrls.avgPriority_.writebacks::samples    118557.00                       # Average QoS priority value for accepted requests
system.mem_ctrls.avgPriority_.cpu.inst::samples     76839.00                       # Average QoS priority value for accepted requests
system.mem_ctrls.avgPriority_.cpu.data::samples     69317.00                       # Average QoS priority value for accepted requests
system.mem_ctrls.priorityMinLatency      0.000000018750                       # per QoS priority minimum request to response latency (s)
system.mem_ctrls.priorityMaxLatency      0.000131316500                       # per QoS priority maximum request to response latency (s)
system.mem_ctrls.numReadWriteTurnArounds         7300                       # Number of turnarounds from READ to WRITE
system.mem_ctrls.numWriteReadTurnArounds         7300                       # Number of turnarounds from WRITE to READ
system.mem_ctrls.numStayReadState              405455                       # Number of times bus staying in READ state
system.mem_ctrls.numStayWriteState             111334                       # Number of times bus staying in WRITE state
system.mem_ctrls.readReqs                      156526                       # Number of read requests accepted
system.mem_ctrls.writeReqs                     120798                       # Number of write requests accepted
system.mem_ctrls.readBursts                    156526                       # Number of DRAM read bursts, including those serviced by the write queue
system.mem_ctrls.writeBursts                   120798                       # Number of DRAM write bursts, including those merged in the write queue
system.mem_ctrls.servicedByWrQ                  10370                       # Number of DRAM read bursts serviced by the write queue
system.mem_ctrls.mergedWrBursts                  2241                       # Number of DRAM write bursts merged with an existing one
system.mem_ctrls.neitherReadNorWriteReqs            0                       # Number of requests that are neither read nor write
system.mem_ctrls.perBankRdBursts::0              8773                       # Per bank write bursts
system.mem_ctrls.perBankRdBursts::1              6742                       # Per bank write bursts
system.mem_ctrls.perBankRdBursts::2              9734                       # Per bank write bursts
system.mem_ctrls.perBankRdBursts::3              7137                       # Per bank write bursts
system.mem_ctrls.perBankRdBursts::4              8390                       # Per bank write bursts
system.mem_ctrls.perBankRdBursts::5             10072                       # Per bank write bursts
system.mem_ctrls.perBankRdBursts::6              8439                       # Per bank write bursts
system.mem_ctrls.perBankRdBursts::7              8692                       # Per bank write bursts
system.mem_ctrls.perBankRdBursts::8             11759                       # Per bank write bursts
system.mem_ctrls.perBankRdBursts::9              9282                       # Per bank write bursts
system.mem_ctrls.perBankRdBursts::10            10544                       # Per bank write bursts
system.mem_ctrls.perBankRdBursts::11            11976                       # Per bank write bursts
system.mem_ctrls.perBankRdBursts::12             8877                       # Per bank write bursts
system.mem_ctrls.perBankRdBursts::13            13466                       # Per bank write bursts
system.mem_ctrls.perBankRdBursts::14             5497                       # Per bank write bursts
system.mem_ctrls.perBankRdBursts::15             6776                       # Per bank write bursts
system.mem_ctrls.perBankWrBursts::0              7056                       # Per bank write bursts
system.mem_ctrls.perBankWrBursts::1              4573                       # Per bank write bursts
system.mem_ctrls.perBankWrBursts::2              8316                       # Per bank write bursts
system.mem_ctrls.perBankWrBursts::3              7975                       # Per bank write bursts
system.mem_ctrls.perBankWrBursts::4              7720                       # Per bank write bursts
system.mem_ctrls.perBankWrBursts::5              9828                       # Per bank write bursts
system.mem_ctrls.perBankWrBursts::6              7203                       # Per bank write bursts
system.mem_ctrls.perBankWrBursts::7              6890                       # Per bank write bursts
system.mem_ctrls.perBankWrBursts::8             10507                       # Per bank write bursts
system.mem_ctrls.perBankWrBursts::9              8419                       # Per bank write bursts
system.mem_ctrls.perBankWrBursts::10             7831                       # Per bank write bursts
system.mem_ctrls.perBankWrBursts::11             8028                       # Per bank write bursts
system.mem_ctrls.perBankWrBursts::12             5450                       # Per bank write bursts
system.mem_ctrls.perBankWrBursts::13             9929                       # Per bank write bursts
system.mem_ctrls.perBankWrBursts::14             3153                       # Per bank write bursts
system.mem_ctrls.perBankWrBursts::15             5651                       # Per bank write bursts
system.mem_ctrls.avgRdQLen                       1.09                       # Average read queue length when enqueuing
system.mem_ctrls.avgWrQLen                      25.72                       # Average write queue length when enqueuing
system.mem_ctrls.totQLat                   1998525500                       # Total ticks spent queuing
system.mem_ctrls.totBusLat                  730780000                       # Total ticks spent in databus transfers
system.mem_ctrls.totMemAccLat              4738950500                       # Total ticks spent from burst creation until serviced by the DRAM
system.mem_ctrls.avgQLat                     13673.92                       # Average queueing delay per DRAM burst
system.mem_ctrls.avgBusLat                    5000.00                       # Average bus latency per DRAM burst
system.mem_ctrls.avgMemAccLat                32423.92                       # Average memory access latency per DRAM burst
system.mem_ctrls.numRdRetry                         0                       # Number of times read queue was full causing retry
system.mem_ctrls.numWrRetry                         0                       # Number of times write queue was full causing retry
system.mem_ctrls.readRowHits                   103520                       # Number of row buffer hits during reads
system.mem_ctrls.writeRowHits                   79984                       # Number of row buffer hits during writes
system.mem_ctrls.readRowHitRate                 70.83                       # Row buffer hit rate for reads
system.mem_ctrls.writeRowHitRate                67.46                       # Row buffer hit rate for writes
system.mem_ctrls.readPktSize::0                     0                       # Read request sizes (log2)
system.mem_ctrls.readPktSize::1                     0                       # Read request sizes (log2)
system.mem_ctrls.readPktSize::2                     0                       # Read request sizes (log2)
system.mem_ctrls.readPktSize::3                     0                       # Read request sizes (log2)
system.mem_ctrls.readPktSize::4                     0                       # Read request sizes (log2)
system.mem_ctrls.readPktSize::5                     0                       # Read request sizes (log2)
system.mem_ctrls.readPktSize::6                156526                       # Read request sizes (log2)
system.mem_ctrls.writePktSize::0                    0                       # Write request sizes (log2)
system.mem_ctrls.writePktSize::1                    0                       # Write request sizes (log2)
system.mem_ctrls.writePktSize::2                    0                       # Write request sizes (log2)
system.mem_ctrls.writePktSize::3                    0                       # Write request sizes (log2)
system.mem_ctrls.writePktSize::4                    0                       # Write request sizes (log2)
system.mem_ctrls.writePktSize::5                    0                       # Write request sizes (log2)
system.mem_ctrls.writePktSize::6               120798                       # Write request sizes (log2)
system.mem_ctrls.rdQLenPdf::0                  133824                       # What read queue length does an incoming req see
system.mem_ctrls.rdQLenPdf::1                   12030                       # What read queue length does an incoming req see
system.mem_ctrls.rdQLenPdf::2                     302                       # What read queue length does an incoming req see
system.mem_ctrls.rdQLenPdf::3                       0                       # What read queue length does an incoming req see
system.mem_ctrls.rdQLenPdf::4                       0                       # What read queue length does an incoming req see
system.mem_ctrls.rdQLenPdf::5                       0                       # What read queue length does an incoming req see
system.mem_ctrls.rdQLenPdf::6                       0                       # What read queue length does an incoming req see
system.mem_ctrls.rdQLenPdf::7                       0                       # What read queue length does an incoming req see
system.mem_ctrls.rdQLenPdf::8                       0                       # What read queue length does an incoming req see
system.mem_ctrls.rdQLenPdf::9                       0                       # What read queue length does an incoming req see
system.mem_ctrls.rdQLenPdf::10                      0                       # What read queue length does an incoming req see
system.mem_ctrls.rdQLenPdf::11                      0                       # What read queue length does an incoming req see
system.mem_ctrls.rdQLenPdf::12                      0                       # What read queue length does an incoming req see
system.mem_ctrls.rdQLenPdf::13                      0                       # What read queue length does an incoming req see
system.mem_ctrls.rdQLenPdf::14                      0                       # What read queue length does an incoming req see
system.mem_ctrls.rdQLenPdf::15                      0                       # What read queue length does an incoming req see
system.mem_ctrls.rdQLenPdf::16                      0                       # What read queue length does an incoming req see
system.mem_ctrls.rdQLenPdf::17                      0                       # What read queue length does an incoming req see
system.mem_ctrls.rdQLenPdf::18                      0                       # What read queue length does an incoming req see
system.mem_ctrls.rdQLenPdf::19                      0                       # What read queue length does an incoming req see
system.mem_ctrls.rdQLenPdf::20                      0                       # What read queue length does an incoming req see
system.mem_ctrls.rdQLenPdf::21                      0                       # What read queue length does an incoming req see
system.mem_ctrls.rdQLenPdf::22                      0                       # What read queue length does an incoming req see
system.mem_ctrls.rdQLenPdf::23                      0                       # What read queue length does an incoming req see
system.mem_ctrls.rdQLenPdf::24                      0                       # What read queue length does an incoming req see
system.mem_ctrls.rdQLenPdf::25                      0                       # What read queue length does an incoming req see
system.mem_ctrls.rdQLenPdf::26                      0                       # What read queue length does an incoming req see
system.mem_ctrls.rdQLenPdf::27                      0                       # What read queue length does an incoming req see
system.mem_ctrls.rdQLenPdf::28                      0                       # What read queue length does an incoming req see
system.mem_ctrls.rdQLenPdf::29                      0                       # What read queue length does an incoming req see
system.mem_ctrls.rdQLenPdf::30                      0                       # What read queue length does an incoming req see
system.mem_ctrls.rdQLenPdf::31                      0                       # What read queue length does an incoming req see
system.mem_ctrls.wrQLenPdf::0                       1                       # What write queue length does an incoming req see
system.mem_ctrls.wrQLenPdf::1                       1                       # What write queue length does an incoming req see
system.mem_ctrls.wrQLenPdf::2                       1                       # What write queue length does an incoming req see
system.mem_ctrls.wrQLenPdf::3                       1                       # What write queue length does an incoming req see
system.mem_ctrls.wrQLenPdf::4                       1                       # What write queue length does an incoming req see
system.mem_ctrls.wrQLenPdf::5                       1                       # What write queue length does an incoming req see
system.mem_ctrls.wrQLenPdf::6                       1                       # What write queue length does an incoming req see
system.mem_ctrls.wrQLenPdf::7                       1                       # What write queue length does an incoming req see
system.mem_ctrls.wrQLenPdf::8                       1                       # What write queue length does an incoming req see
system.mem_ctrls.wrQLenPdf::9                       1                       # What write queue length does an incoming req see
system.mem_ctrls.wrQLenPdf::10                      1                       # What write queue length does an incoming req see
system.mem_ctrls.wrQLenPdf::11                      1                       # What write queue length does an incoming req see
system.mem_ctrls.wrQLenPdf::12                      1                       # What write queue length does an incoming req see
system.mem_ctrls.wrQLenPdf::13                      1                       # What write queue length does an incoming req see
system.mem_ctrls.wrQLenPdf::14                      1                       # What write queue length does an incoming req see
system.mem_ctrls.wrQLenPdf::15                    632                       # What write queue length does an incoming req see
system.mem_ctrls.wrQLenPdf::16                    742                       # What write queue length does an incoming req see
system.mem_ctrls.wrQLenPdf::17                   6659                       # What write queue length does an incoming req see
system.mem_ctrls.wrQLenPdf::18                   7306                       # What write queue length does an incoming req see
system.mem_ctrls.wrQLenPdf::19                   7421                       # What write queue length does an incoming req see
system.mem_ctrls.wrQLenPdf::20                   7388                       # What write queue length does an incoming req see
system.mem_ctrls.wrQLenPdf::21                   7392                       # What write queue length does an incoming req see
system.mem_ctrls.wrQLenPdf::22                   7485                       # What write queue length does an incoming req see
system.mem_ctrls.wrQLenPdf::23                   7377                       # What write queue length does an incoming req see
system.mem_ctrls.wrQLenPdf::24                   7378                       # What write queue length does an incoming req see
system.mem_ctrls.wrQLenPdf::25                   7382                       # What write queue length does an incoming req see
system.mem_ctrls.wrQLenPdf::26                   7410                       # What write queue length does an incoming req see
system.mem_ctrls.wrQLenPdf::27                   7353                       # What write queue length does an incoming req see
system.mem_ctrls.wrQLenPdf::28                   7344                       # What write queue length does an incoming req see
system.mem_ctrls.wrQLenPdf::29                   7324                       # What write queue length does an incoming req see
system.mem_ctrls.wrQLenPdf::30                   7301                       # What write queue length does an incoming req see
system.mem_ctrls.wrQLenPdf::31                   7300                       # What write queue length does an incoming req see
system.mem_ctrls.wrQLenPdf::32                   7299                       # What write queue length does an incoming req see
system.mem_ctrls.wrQLenPdf::33                     15                       # What write queue length does an incoming req see
system.mem_ctrls.wrQLenPdf::34                      6                       # What write queue length does an incoming req see
system.mem_ctrls.wrQLenPdf::35                      3                       # What write queue length does an incoming req see
system.mem_ctrls.wrQLenPdf::36                      2                       # What write queue length does an incoming req see
system.mem_ctrls.wrQLenPdf::37                      2                       # What write queue length does an incoming req see
system.mem_ctrls.wrQLenPdf::38                      2                       # What write queue length does an incoming req see
system.mem_ctrls.wrQLenPdf::39                      1                       # What write queue length does an incoming req see
system.mem_ctrls.wrQLenPdf::40                      1                       # What write queue length does an incoming req see
system.mem_ctrls.wrQLenPdf::41                      1                       # What write queue length does an incoming req see
system.mem_ctrls.wrQLenPdf::42                      1                       # What write queue length does an incoming req see
system.mem_ctrls.wrQLenPdf::43                      1                       # What write queue length does an incoming req see
system.mem_ctrls.wrQLenPdf::44                      1                       # What write queue length does an incoming req see
system.mem_ctrls.wrQLenPdf::45                      1                       # What write queue length does an incoming req see
system.mem_ctrls.wrQLenPdf::46                      1                       # What write queue length does an incoming req see
system.mem_ctrls.wrQLenPdf::47                      1                       # What write queue length does an incoming req see
system.mem_ctrls.wrQLenPdf::48                      1                       # What write queue length does an incoming req see
system.mem_ctrls.wrQLenPdf::49                      1                       # What write queue length does an incoming req see
system.mem_ctrls.wrQLenPdf::50                      1                       # What write queue length does an incoming req see
system.mem_ctrls.wrQLenPdf::51                      1                       # What write queue length does an incoming req see
system.mem_ctrls.wrQLenPdf::52                      1                       # What write queue length does an incoming req see
system.mem_ctrls.wrQLenPdf::53                      1                       # What write queue length does an incoming req see
system.mem_ctrls.wrQLenPdf::54                      1                       # What write queue length does an incoming req see
system.mem_ctrls.wrQLenPdf::55                      1                       # What write queue length does an incoming req see
system.mem_ctrls.wrQLenPdf::56                      1                       # What write queue length does an incoming req see
system.mem_ctrls.wrQLenPdf::57                      1                       # What write queue length does an incoming req see
system.mem_ctrls.wrQLenPdf::58                      0                       # What write queue length does an incoming req see
system.mem_ctrls.wrQLenPdf::59                      0                       # What write queue length does an incoming req see
system.mem_ctrls.wrQLenPdf::60                      0                       # What write queue length does an incoming req see
system.mem_ctrls.wrQLenPdf::61                      0                       # What write queue length does an incoming req see
system.mem_ctrls.wrQLenPdf::62                      0                       # What write queue length does an incoming req see
system.mem_ctrls.wrQLenPdf::63                      0                       # What write queue length does an incoming req see
system.mem_ctrls.bytesPerActivate::samples        81169                       # Bytes accessed per row activation
system.mem_ctrls.bytesPerActivate::mean    208.672375                       # Bytes accessed per row activation
system.mem_ctrls.bytesPerActivate::gmean   140.283681                       # Bytes accessed per row activation
system.mem_ctrls.bytesPerActivate::stdev   225.598152                       # Bytes accessed per row activation
system.mem_ctrls.bytesPerActivate::0-127        34332     42.30%     42.30% # Bytes accessed per row activation
system.mem_ctrls.bytesPerActivate::128-255        24197     29.81%     72.11% # Bytes accessed per row activation
system.mem_ctrls.bytesPerActivate::256-383        10075     12.41%     84.52% # Bytes accessed per row activation
system.mem_ctrls.bytesPerActivate::384-511         4483      5.52%     90.04% # Bytes accessed per row activation
system.mem_ctrls.bytesPerActivate::512-639         2299      2.83%     92.88% # Bytes accessed per row activation
system.mem_ctrls.bytesPerActivate::640-767         1394      1.72%     94.59% # Bytes accessed per row activation
system.mem_ctrls.bytesPerActivate::768-895          989      1.22%     95.81% # Bytes accessed per row activation
system.mem_ctrls.bytesPerActivate::896-1023          591      0.73%     96.54% # Bytes accessed per row activation
system.mem_ctrls.bytesPerActivate::1024-1151         2809      3.46%    100.00% # Bytes accessed per row activation
system.mem_ctrls.bytesPerActivate::total        81169                       # Bytes accessed per row activation
system.mem_ctrls.rdPerTurnAround::samples         7300                       # Reads before turning the bus around for writes
system.mem_ctrls.rdPerTurnAround::mean      20.019863                       # Reads before turning the bus around for writes
system.mem_ctrls.rdPerTurnAround::gmean     18.415705                       # Reads before turning the bus around for writes
system.mem_ctrls.rdPerTurnAround::stdev     12.657719                       # Reads before turning the bus around for writes
system.mem_ctrls.rdPerTurnAround::0-15           1309     17.93%     17.93% # Reads before turning the bus around for writes
system.mem_ctrls.rdPerTurnAround::16-31          5514     75.53%     93.47% # Reads before turning the bus around for writes
system.mem_ctrls.rdPerTurnAround::32-47           285      3.90%     97.37% # Reads before turning the bus around for writes
system.mem_ctrls.rdPerTurnAround::48-63            91      1.25%     98.62% # Reads before turning the bus around for writes
system.mem_ctrls.rdPerTurnAround::64-79            39      0.53%     99.15% # Reads before turning the bus around for writes
system.mem_ctrls.rdPerTurnAround::80-95            23      0.32%     99.47% # Reads before turning the bus around for writes
system.mem_ctrls.rdPerTurnAround::96-111           12      0.16%     99.63% # Reads before turning the bus around for writes
system.mem_ctrls.rdPerTurnAround::112-127            8      0.11%     99.74% # Reads before turning the bus around for writes
system.mem_ctrls.rdPerTurnAround::128-143            9      0.12%     99.86% # Reads before turning the bus around for writes
system.mem_ctrls.rdPerTurnAround::144-159            7      0.10%     99.96% # Reads before turning the bus around for writes
system.mem_ctrls.rdPerTurnAround::160-175            1      0.01%     99.97% # Reads before turning the bus around for writes
system.mem_ctrls.rdPerTurnAround::256-271            1      0.01%     99.99% # Reads before turning the bus around for writes
system.mem_ctrls.rdPerTurnAround::400-415            1      0.01%    100.00% # Reads before turning the bus around for writes
system.mem_ctrls.rdPerTurnAround::total          7300                       # Reads before turning the bus around for writes
system.mem_ctrls.wrPerTurnAround::samples         7300                       # Writes before turning the bus around for reads
system.mem_ctrls.wrPerTurnAround::mean      16.236849                       # Writes before turning the bus around for reads
system.mem_ctrls.wrPerTurnAround::gmean     16.221452                       # Writes before turning the bus around for reads
system.mem_ctrls.wrPerTurnAround::stdev      0.740051                       # Writes before turning the bus around for reads
system.mem_ctrls.wrPerTurnAround::16             6535     89.52%     89.52% # Writes before turning the bus around for reads
system.mem_ctrls.wrPerTurnAround::17               99      1.36%     90.88% # Writes before turning the bus around for reads
system.mem_ctrls.wrPerTurnAround::18              442      6.05%     96.93% # Writes before turning the bus around for reads
system.mem_ctrls.wrPerTurnAround::19              153      2.10%     99.03% # Writes before turning the bus around for reads
system.mem_ctrls.wrPerTurnAround::20               68      0.93%     99.96% # Writes before turning the bus around for reads
system.mem_ctrls.wrPerTurnAround::21                3      0.04%    100.00% # Writes before turning the bus around for reads
system.mem_ctrls.wrPerTurnAround::total          7300                       # Writes before turning the bus around for reads
system.mem_ctrls.bytesReadDRAM                9353984                       # Total number of bytes read from DRAM
system.mem_ctrls.bytesReadWrQ                  663680                       # Total number of bytes read from write queue
system.mem_ctrls.bytesWritten                 7585856                       # Total number of bytes written to DRAM
system.mem_ctrls.bytesReadSys                10017664                       # Total read bytes from the system interface side
system.mem_ctrls.bytesWrittenSys              7731072                       # Total written bytes from the system interface side
system.mem_ctrls.avgRdBW                       794.11                       # Average DRAM read bandwidth in MiByte/s
system.mem_ctrls.avgWrBW                       644.01                       # Average achieved write bandwidth in MiByte/s
system.mem_ctrls.avgRdBWSys                    850.46                       # Average system read bandwidth in MiByte/s
system.mem_ctrls.avgWrBWSys                    656.34                       # Average system write bandwidth in MiByte/s
system.mem_ctrls.peakBW                      12800.00                       # Theoretical peak bandwidth in MiByte/s
system.mem_ctrls.busUtil                        11.24                       # Data bus utilization in percentage
system.mem_ctrls.busUtilRead                     6.20                       # Data bus utilization in percentage for reads
system.mem_ctrls.busUtilWrite                    5.03                       # Data bus utilization in percentage for writes
system.mem_ctrls.totGap                   11779140500                       # Total gap between requests
system.mem_ctrls.avgGap                      42474.29                       # Average gap between requests
system.mem_ctrls.masterReadBytes::.cpu.inst      4917696                       # Per-master bytes read from memory
system.mem_ctrls.masterReadBytes::.cpu.data      4436288                       # Per-master bytes read from memory
system.mem_ctrls.masterWriteBytes::.writebacks      7585856                       # Per-master bytes write to memory
system.mem_ctrls.masterReadRate::.cpu.inst 417491744.201648592949                       # Per-master bytes read from memory rate (Bytes/sec)
system.mem_ctrls.masterReadRate::.cpu.data 376622226.119882822037                       # Per-master bytes read from memory rate (Bytes/sec)
system.mem_ctrls.masterWriteRate::.writebacks 644007326.337890982628                       # Per-master bytes write to memory rate (Bytes/sec)
[...]
system.cpu.icache.ReadReq_mshr_miss_latency::total  11712818500                       # number of ReadReq MSHR miss cycles
system.cpu.icache.ReadReq_mshr_miss_rate::.cpu.inst     0.003317                       # mshr miss rate for ReadReq accesses
system.cpu.icache.ReadReq_mshr_miss_rate::total     0.003317                       # mshr miss rate for ReadReq accesses
system.cpu.icache.ReadReq_avg_mshr_miss_latency::.cpu.inst 23321.111777                       # average ReadReq mshr miss latency
system.cpu.icache.ReadReq_avg_mshr_miss_latency::total 23321.111777                       # average ReadReq mshr miss latency
system.cpu.icache.tags.pwrStateResidencyTicks::UNDEFINED 336806125000                       # Cumulative time (in ticks) in various power states
system.cpu.icache.tags.tagsinuse                  512                       # Cycle average of tags in use
system.cpu.icache.tags.total_refs           151430663                       # Total number of references to valid blocks.
system.cpu.icache.tags.sampled_refs            502754                       # Sample count of references to valid blocks.
system.cpu.icache.tags.avg_refs            301.202304                       # Average number of references to valid blocks.
system.cpu.icache.tags.warmup_cycle                 0                       # Cycle when the warmup percentage was hit.
system.cpu.icache.tags.occ_blocks::.cpu.inst          512                       # Average occupied blocks per requestor
system.cpu.icache.tags.occ_percent::.cpu.inst            1                       # Average percentage of cache occupancy
system.cpu.icache.tags.occ_percent::total            1                       # Average percentage of cache occupancy
system.cpu.icache.tags.occ_task_id_blocks::1024          512                       # Occupied blocks per task id
system.cpu.icache.tags.age_task_id_blocks_1024::0            2                       # Occupied blocks per task id
system.cpu.icache.tags.age_task_id_blocks_1024::1           45                       # Occupied blocks per task id
system.cpu.icache.tags.age_task_id_blocks_1024::3           14                       # Occupied blocks per task id
system.cpu.icache.tags.age_task_id_blocks_1024::4          451                       # Occupied blocks per task id
system.cpu.icache.tags.occ_task_id_percent::1024            1                       # Percentage of cache occupancy per task id
system.cpu.icache.tags.tag_accesses         303326862                       # Number of tag accesses
system.cpu.icache.tags.data_accesses        303326862                       # Number of data accesses
system.cpu.dcache.pwrStateResidencyTicks::UNDEFINED 336806125000                       # Cumulative time (in ticks) in various power states
system.cpu.dcache.demand_hits::.cpu.data    109313332                       # number of demand (read+write) hits
system.cpu.dcache.demand_hits::total        109313332                       # number of demand (read+write) hits
system.cpu.dcache.overall_hits::.cpu.data    109313332                       # number of overall hits
system.cpu.dcache.overall_hits::total       109313332                       # number of overall hits
system.cpu.dcache.demand_misses::.cpu.data       105618                       # number of demand (read+write) misses
system.cpu.dcache.demand_misses::total         105618                       # number of demand (read+write) misses
system.cpu.dcache.overall_misses::.cpu.data       105618                       # number of overall misses
system.cpu.dcache.overall_misses::total        105618                       # number of overall misses
system.cpu.dcache.demand_miss_latency::.cpu.data   7112004000                       # number of demand (read+write) miss cycles
system.cpu.dcache.demand_miss_latency::total   7112004000                       # number of demand (read+write) miss cycles
system.cpu.dcache.overall_miss_latency::.cpu.data   7112004000                       # number of overall miss cycles
system.cpu.dcache.overall_miss_latency::total   7112004000                       # number of overall miss cycles
system.cpu.dcache.demand_accesses::.cpu.data    109418950                       # number of demand (read+write) accesses
system.cpu.dcache.demand_accesses::total    109418950                       # number of demand (read+write) accesses
system.cpu.dcache.overall_accesses::.cpu.data    109418950                       # number of overall (read+write) accesses
system.cpu.dcache.overall_accesses::total    109418950                       # number of overall (read+write) accesses
system.cpu.dcache.demand_miss_rate::.cpu.data     0.000965                       # miss rate for demand accesses
system.cpu.dcache.demand_miss_rate::total     0.000965                       # miss rate for demand accesses
system.cpu.dcache.overall_miss_rate::.cpu.data     0.000965                       # miss rate for overall accesses
system.cpu.dcache.overall_miss_rate::total     0.000965                       # miss rate for overall accesses
system.cpu.dcache.demand_avg_miss_latency::.cpu.data 67337.044822                       # average overall miss latency
system.cpu.dcache.demand_avg_miss_latency::total 67337.044822                       # average overall miss latency
system.cpu.dcache.overall_avg_miss_latency::.cpu.data 67337.044822                       # average overall miss latency
system.cpu.dcache.overall_avg_miss_latency::total 67337.044822                       # average overall miss latency
system.cpu.dcache.blocked_cycles::no_mshrs            0                       # number of cycles access was blocked
system.cpu.dcache.blocked_cycles::no_targets            0                       # number of cycles access was blocked
system.cpu.dcache.blocked::no_mshrs                 0                       # number of cycles access was blocked
system.cpu.dcache.blocked::no_targets               0                       # number of cycles access was blocked
system.cpu.dcache.avg_blocked_cycles::no_mshrs          nan                       # average number of cycles each access was blocked
system.cpu.dcache.avg_blocked_cycles::no_targets          nan                       # average number of cycles each access was blocked
system.cpu.dcache.writebacks::.writebacks        14354                       # number of writebacks
system.cpu.dcache.writebacks::total             14354                       # number of writebacks
system.cpu.dcache.demand_mshr_hits::.cpu.data          756                       # number of demand (read+write) MSHR hits
system.cpu.dcache.demand_mshr_hits::total          756                       # number of demand (read+write) MSHR hits
system.cpu.dcache.overall_mshr_hits::.cpu.data          756                       # number of overall MSHR hits
system.cpu.dcache.overall_mshr_hits::total          756                       # number of overall MSHR hits
system.cpu.dcache.demand_mshr_misses::.cpu.data       104862                       # number of demand (read+write) MSHR misses
system.cpu.dcache.demand_mshr_misses::total       104862                       # number of demand (read+write) MSHR misses
system.cpu.dcache.overall_mshr_misses::.cpu.data       104862                       # number of overall MSHR misses
system.cpu.dcache.overall_mshr_misses::total       104862                       # number of overall MSHR misses
system.cpu.dcache.overall_mshr_uncacheable_misses::.cpu.data          345                       # number of overall MSHR uncacheable misses
system.cpu.dcache.overall_mshr_uncacheable_misses::total          345                       # number of overall MSHR uncacheable misses
system.cpu.dcache.demand_mshr_miss_latency::.cpu.data   6959394500                       # number of demand (read+write) MSHR miss cycles
system.cpu.dcache.demand_mshr_miss_latency::total   6959394500                       # number of demand (read+write) MSHR miss cycles
system.cpu.dcache.overall_mshr_miss_latency::.cpu.data   6959394500                       # number of overall MSHR miss cycles
system.cpu.dcache.overall_mshr_miss_latency::total   6959394500                       # number of overall MSHR miss cycles
system.cpu.dcache.demand_mshr_miss_rate::.cpu.data     0.000958                       # mshr miss rate for demand accesses
system.cpu.dcache.demand_mshr_miss_rate::total     0.000958                       # mshr miss rate for demand accesses
system.cpu.dcache.overall_mshr_miss_rate::.cpu.data     0.000958                       # mshr miss rate for overall accesses
system.cpu.dcache.overall_mshr_miss_rate::total     0.000958                       # mshr miss rate for overall accesses
system.cpu.dcache.demand_avg_mshr_miss_latency::.cpu.data 66367.173046                       # average overall mshr miss latency
system.cpu.dcache.demand_avg_mshr_miss_latency::total 66367.173046                       # average overall mshr miss latency
system.cpu.dcache.overall_avg_mshr_miss_latency::.cpu.data 66367.173046                       # average overall mshr miss latency
system.cpu.dcache.overall_avg_mshr_miss_latency::total 66367.173046                       # average overall mshr miss latency
system.cpu.dcache.replacements                 105075                       # number of replacements
system.cpu.dcache.ReadReq_hits::.cpu.data     65931858                       # number of ReadReq hits
system.cpu.dcache.ReadReq_hits::total        65931858                       # number of ReadReq hits
system.cpu.dcache.ReadReq_misses::.cpu.data        94161                       # number of ReadReq misses
system.cpu.dcache.ReadReq_misses::total         94161                       # number of ReadReq misses
system.cpu.dcache.ReadReq_miss_latency::.cpu.data   6331651500                       # number of ReadReq miss cycles
system.cpu.dcache.ReadReq_miss_latency::total   6331651500                       # number of ReadReq miss cycles
system.cpu.dcache.ReadReq_accesses::.cpu.data     66026019                       # number of ReadReq accesses(hits+misses)
system.cpu.dcache.ReadReq_accesses::total     66026019                       # number of ReadReq accesses(hits+misses)
system.cpu.dcache.ReadReq_miss_rate::.cpu.data     0.001426                       # miss rate for ReadReq accesses
system.cpu.dcache.ReadReq_miss_rate::total     0.001426                       # miss rate for ReadReq accesses
system.cpu.dcache.ReadReq_avg_miss_latency::.cpu.data 67242.823462                       # average ReadReq miss latency
system.cpu.dcache.ReadReq_avg_miss_latency::total 67242.823462                       # average ReadReq miss latency
system.cpu.dcache.ReadReq_mshr_hits::.cpu.data           38                       # number of ReadReq MSHR hits
system.cpu.dcache.ReadReq_mshr_hits::total           38                       # number of ReadReq MSHR hits
system.cpu.dcache.ReadReq_mshr_misses::.cpu.data        94123                       # number of ReadReq MSHR misses
system.cpu.dcache.ReadReq_mshr_misses::total        94123                       # number of ReadReq MSHR misses
system.cpu.dcache.ReadReq_mshr_miss_latency::.cpu.data   6234251000                       # number of ReadReq MSHR miss cycles
system.cpu.dcache.ReadReq_mshr_miss_latency::total   6234251000                       # number of ReadReq MSHR miss cycles
system.cpu.dcache.ReadReq_mshr_miss_rate::.cpu.data     0.001426                       # mshr miss rate for ReadReq accesses
system.cpu.dcache.ReadReq_mshr_miss_rate::total     0.001426                       # mshr miss rate for ReadReq accesses
system.cpu.dcache.ReadReq_avg_mshr_miss_latency::.cpu.data 66235.149751                       # average ReadReq mshr miss latency
system.cpu.dcache.ReadReq_avg_mshr_miss_latency::total 66235.149751                       # average ReadReq mshr miss latency
system.cpu.dcache.WriteReq_hits::.cpu.data     43381474                       # number of WriteReq hits
system.cpu.dcache.WriteReq_hits::total       43381474                       # number of WriteReq hits
system.cpu.dcache.WriteReq_misses::.cpu.data        11457                       # number of WriteReq misses
system.cpu.dcache.WriteReq_misses::total        11457                       # number of WriteReq misses
system.cpu.dcache.WriteReq_miss_latency::.cpu.data    780352500                       # number of WriteReq miss cycles
system.cpu.dcache.WriteReq_miss_latency::total    780352500                       # number of WriteReq miss cycles
system.cpu.dcache.WriteReq_accesses::.cpu.data     43392931                       # number of WriteReq accesses(hits+misses)
system.cpu.dcache.WriteReq_accesses::total     43392931                       # number of WriteReq accesses(hits+misses)
system.cpu.dcache.WriteReq_miss_rate::.cpu.data     0.000264                       # miss rate for WriteReq accesses
system.cpu.dcache.WriteReq_miss_rate::total     0.000264                       # miss rate for WriteReq accesses
system.cpu.dcache.WriteReq_avg_miss_latency::.cpu.data 68111.416601                       # average WriteReq miss latency
system.cpu.dcache.WriteReq_avg_miss_latency::total 68111.416601                       # average WriteReq miss latency
system.cpu.dcache.WriteReq_mshr_hits::.cpu.data          718                       # number of WriteReq MSHR hits
system.cpu.dcache.WriteReq_mshr_hits::total          718                       # number of WriteReq MSHR hits
system.cpu.dcache.WriteReq_mshr_misses::.cpu.data        10739                       # number of WriteReq MSHR misses
system.cpu.dcache.WriteReq_mshr_misses::total        10739                       # number of WriteReq MSHR misses
system.cpu.dcache.WriteReq_mshr_uncacheable::.cpu.data          345                       # number of WriteReq MSHR uncacheable
system.cpu.dcache.WriteReq_mshr_uncacheable::total          345                       # number of WriteReq MSHR uncacheable
system.cpu.dcache.WriteReq_mshr_miss_latency::.cpu.data    725143500                       # number of WriteReq MSHR miss cycles
system.cpu.dcache.WriteReq_mshr_miss_latency::total    725143500                       # number of WriteReq MSHR miss cycles
system.cpu.dcache.WriteReq_mshr_miss_rate::.cpu.data     0.000247                       # mshr miss rate for WriteReq accesses
system.cpu.dcache.WriteReq_mshr_miss_rate::total     0.000247                       # mshr miss rate for WriteReq accesses
system.cpu.dcache.WriteReq_avg_mshr_miss_latency::.cpu.data 67524.303939                       # average WriteReq mshr miss latency
system.cpu.dcache.WriteReq_avg_mshr_miss_latency::total 67524.303939                       # average WriteReq mshr miss latency
system.cpu.dcache.LoadLockedReq_hits::.cpu.data         2009                       # number of LoadLockedReq hits
system.cpu.dcache.LoadLockedReq_hits::total         2009                       # number of LoadLockedReq hits
system.cpu.dcache.LoadLockedReq_misses::.cpu.data          213                       # number of LoadLockedReq misses
system.cpu.dcache.LoadLockedReq_misses::total          213                       # number of LoadLockedReq misses
system.cpu.dcache.LoadLockedReq_miss_latency::.cpu.data     15297500                       # number of LoadLockedReq miss cycles
system.cpu.dcache.LoadLockedReq_miss_latency::total     15297500                       # number of LoadLockedReq miss cycles
system.cpu.dcache.LoadLockedReq_accesses::.cpu.data         2222                       # number of LoadLockedReq accesses(hits+misses)
system.cpu.dcache.LoadLockedReq_accesses::total         2222                       # number of LoadLockedReq accesses(hits+misses)
system.cpu.dcache.LoadLockedReq_miss_rate::.cpu.data     0.095860                       # miss rate for LoadLockedReq accesses
system.cpu.dcache.LoadLockedReq_miss_rate::total     0.095860                       # miss rate for LoadLockedReq accesses
system.cpu.dcache.LoadLockedReq_avg_miss_latency::.cpu.data 71819.248826                       # average LoadLockedReq miss latency
system.cpu.dcache.LoadLockedReq_avg_miss_latency::total 71819.248826                       # average LoadLockedReq miss latency
system.cpu.dcache.LoadLockedReq_mshr_misses::.cpu.data          213                       # number of LoadLockedReq MSHR misses
system.cpu.dcache.LoadLockedReq_mshr_misses::total          213                       # number of LoadLockedReq MSHR misses
system.cpu.dcache.LoadLockedReq_mshr_miss_latency::.cpu.data     15084500                       # number of LoadLockedReq MSHR miss cycles
system.cpu.dcache.LoadLockedReq_mshr_miss_latency::total     15084500                       # number of LoadLockedReq MSHR miss cycles
system.cpu.dcache.LoadLockedReq_mshr_miss_rate::.cpu.data     0.095860                       # mshr miss rate for LoadLockedReq accesses
system.cpu.dcache.LoadLockedReq_mshr_miss_rate::total     0.095860                       # mshr miss rate for LoadLockedReq accesses
system.cpu.dcache.LoadLockedReq_avg_mshr_miss_latency::.cpu.data 70819.248826                       # average LoadLockedReq mshr miss latency
system.cpu.dcache.LoadLockedReq_avg_mshr_miss_latency::total 70819.248826                       # average LoadLockedReq mshr miss latency
system.cpu.dcache.StoreCondReq_hits::.cpu.data         2222                       # number of StoreCondReq hits
system.cpu.dcache.StoreCondReq_hits::total         2222                       # number of StoreCondReq hits
system.cpu.dcache.StoreCondReq_accesses::.cpu.data         2222                       # number of StoreCondReq accesses(hits+misses)
system.cpu.dcache.StoreCondReq_accesses::total         2222                       # number of StoreCondReq accesses(hits+misses)
system.cpu.dcache.tags.pwrStateResidencyTicks::UNDEFINED 336806125000                       # Cumulative time (in ticks) in various power states
system.cpu.dcache.tags.tagsinuse                 1024                       # Cycle average of tags in use
system.cpu.dcache.tags.total_refs           109463908                       # Total number of references to valid blocks.
system.cpu.dcache.tags.sampled_refs            106099                       # Sample count of references to valid blocks.
system.cpu.dcache.tags.avg_refs           1031.714795                       # Average number of references to valid blocks.
system.cpu.dcache.tags.warmup_cycle                 0                       # Cycle when the warmup percentage was hit.
system.cpu.dcache.tags.occ_blocks::.cpu.data         1024                       # Average occupied blocks per requestor
system.cpu.dcache.tags.occ_percent::.cpu.data            1                       # Average percentage of cache occupancy
system.cpu.dcache.tags.occ_percent::total            1                       # Average percentage of cache occupancy
system.cpu.dcache.tags.occ_task_id_blocks::1024         1024                       # Occupied blocks per task id
system.cpu.dcache.tags.age_task_id_blocks_1024::0            1                       # Occupied blocks per task id
system.cpu.dcache.tags.age_task_id_blocks_1024::1           28                       # Occupied blocks per task id
system.cpu.dcache.tags.age_task_id_blocks_1024::2          141                       # Occupied blocks per task id
system.cpu.dcache.tags.age_task_id_blocks_1024::3          669                       # Occupied blocks per task id
system.cpu.dcache.tags.age_task_id_blocks_1024::4          185                       # Occupied blocks per task id
system.cpu.dcache.tags.occ_task_id_percent::1024            1                       # Percentage of cache occupancy per task id
system.cpu.dcache.tags.tag_accesses         218951863                       # Number of tag accesses
system.cpu.dcache.tags.data_accesses        218951863                       # Number of data accesses

---------- End Simulation Statistics   ----------
